last_page:0x200000000000000
VMEM_RES_CAP:0x100000
PAGE_SIZE:4096
LOG2_PAGE_SIZE:12
LOG2_PAGE_TABLE_SIZE:9
page_table_levels:5
WARNING: physical memory size is smaller than virtual memory size
FDiP enabled with aggresivity 16

*** ChampSim Multicore Out-of-Order Simulator ***

Warmup Instructions: 50000000
Simulation Instructions: 100000000
Number of CPUs: 1
Small page size: 4096
Large page size: 2097152

CPU 0 Bimodal branch predictor
Basic BTB sets: 1024 ways: 8 indirect buffer size: 4096 RAS size: 64
Instruction page size distrubution: 0
Loading instruction page size distribution from /home/bsc/bsc018186/scratch/itp_asplos25_AE/dump/srv21_ap.pdst
Data page size distrubution: 0
Loading data page size distribution from /home/bsc/bsc018186/scratch/itp_asplos25_AE/dump/srv21_ap.pdst
cpu0_L2C IP-based stride prefetcher
cpu0_L1D next line prefetcher
cpu0_STLB using iTP with max lru@8
cpu0_STLB using iTP with instr@0 and data@2
Init sat counter with 3 bits (max:50).
cpu0_L1I next line prefetcher
Off-chip DRAM Size: 4 GiB Channels: 1 Width: 64-bit Data Rate: 3200 MT/s
Heartbeat CPU 0 instructions: 10000000 cycles: 2500323 heartbeat IPC: 3.99949 cumulative IPC: 3.99949 (Simulation time: 0 hr 0 min 38 sec) 
Heartbeat CPU 0 instructions: 20000000 cycles: 5459206 heartbeat IPC: 3.37966 cumulative IPC: 3.66354 (Simulation time: 0 hr 1 min 20 sec) 
Heartbeat CPU 0 instructions: 30000002 cycles: 8114874 heartbeat IPC: 3.76554 cumulative IPC: 3.69692 (Simulation time: 0 hr 2 min 1 sec) 
Heartbeat CPU 0 instructions: 40000002 cycles: 10614876 heartbeat IPC: 4 cumulative IPC: 3.7683 (Simulation time: 0 hr 2 min 42 sec) 
Heartbeat CPU 0 instructions: 50000001 cycles: 13114899 heartbeat IPC: 3.99997 cumulative IPC: 3.81246 (Simulation time: 0 hr 3 min 24 sec) 
Warmup finished CPU 0 instructions: 50000001 cycles: 13114900 cumulative IPC: 3.81246 (Simulation time: 0 hr 3 min 24 sec) 

Warmup complete CPU 0 instructions: 50000001 cycles: 13114900 (Simulation time: 0 hr 3 min 24 sec) 

Heartbeat CPU 0 instructions: 60000002 cycles: 32197049 heartbeat IPC: 0.524051 cumulative IPC: 0.524051 (Simulation time: 0 hr 4 min 34 sec) 
Heartbeat CPU 0 instructions: 70000000 cycles: 50993281 heartbeat IPC: 0.532022 cumulative IPC: 0.528006 (Simulation time: 0 hr 5 min 43 sec) 
Heartbeat CPU 0 instructions: 80000004 cycles: 70297810 heartbeat IPC: 0.518014 cumulative IPC: 0.524633 (Simulation time: 0 hr 6 min 53 sec) 
Heartbeat CPU 0 instructions: 90000001 cycles: 88531663 heartbeat IPC: 0.548431 cumulative IPC: 0.530387 (Simulation time: 0 hr 8 min 1 sec) 
Heartbeat CPU 0 instructions: 100000002 cycles: 107391269 heartbeat IPC: 0.530234 cumulative IPC: 0.530356 (Simulation time: 0 hr 9 min 11 sec) 
*** Reached end of trace: /gpfs/projects/bsc18/MN4/bsc18/romol/ChampSim/traces/qualcomm_srv/srv21_ap.champsimtrace.xz
Heartbeat CPU 0 instructions: 110000004 cycles: 126643465 heartbeat IPC: 0.519422 cumulative IPC: 0.528502 (Simulation time: 0 hr 10 min 23 sec) 
Heartbeat CPU 0 instructions: 120000002 cycles: 139668308 heartbeat IPC: 0.767764 cumulative IPC: 0.553127 (Simulation time: 0 hr 11 min 27 sec) 
Heartbeat CPU 0 instructions: 130000000 cycles: 151684983 heartbeat IPC: 0.832177 cumulative IPC: 0.577326 (Simulation time: 0 hr 12 min 29 sec) 
Heartbeat CPU 0 instructions: 140000000 cycles: 171008451 heartbeat IPC: 0.517506 cumulative IPC: 0.570005 (Simulation time: 0 hr 13 min 39 sec) 
Heartbeat CPU 0 instructions: 150000000 cycles: 189290795 heartbeat IPC: 0.546976 cumulative IPC: 0.567615 (Simulation time: 0 hr 14 min 48 sec) 
Simulation finished CPU 0 instructions: 100000003 cycles: 176175897 cumulative IPC: 0.567615 (Simulation time: 0 hr 14 min 48 sec) 

Simulation complete CPU 0 instructions: 100000003 cycles: 176175897 (Simulation time: 0 hr 14 min 48 sec) 


ChampSim completed all CPUs

Saving instructions large page distribution to /home/bsc/bsc018186/scratch/itp_asplos25_AE/dump/srv21_ap.pdst...
Saving data large page distribution to /home/bsc/bsc018186/scratch/itp_asplos25_AE/dump/srv21_ap.pdst...
=== Simulation ===
CPU 0 runs /gpfs/projects/bsc18/MN4/bsc18/romol/ChampSim/traces/qualcomm_srv/srv21_ap.champsimtrace.xz

Region of Interest Statistics

CPU 0 cumulative IPC: 0.567615 instructions: 100000003 cycles: 176175897
CPU 0 Branch Prediction Accuracy: 82.7116% MPKI: 33.4932 Average ROB Occupancy at Mispredict: 11.4025
Branch type MPKI
BRANCH_DIRECT_JUMP: 1.22764
BRANCH_INDIRECT: 16.8543
BRANCH_CONDITIONAL: 10.7433
BRANCH_DIRECT_CALL: 2.31866
BRANCH_INDIRECT_CALL: 0.71183
BRANCH_RETURN: 1.63758

Instructions large pages: 0
Instructions small pages: 1397
Large page distribution for instructions: 0%

Data large pages: 0
Data small pages: 5144
Large page distribution for data: 0%

cpu0_L1I TOTAL       ACCESS:   34982250  HIT:   27450879  MISS:    7531371  iACCESS:   34982250  iHIT:   27450879  iMISS:    7531371  dACCESS:          0  dHIT:          0  dMISS:          0  itACCESS:          0  itHIT:          0  itMISS:          0  dtACCESS:          0  dtHIT:          0  dtMISS:          0
cpu0_L1I LOAD         ACCESS:    9245416  HIT:    7180369  MISS:    2065047  iACCESS:    9245416  iHIT:    7180369  iMISS:    2065047  dACCESS:          0  dHIT:          0  dMISS:          0  itACCESS:          0  itHIT:          0  itMISS:          0  dtACCESS:          0  dtHIT:          0  dtMISS:          0
cpu0_L1I RFO          ACCESS:          0  HIT:          0  MISS:          0  iACCESS:          0  iHIT:          0  iMISS:          0  dACCESS:          0  dHIT:          0  dMISS:          0  itACCESS:          0  itHIT:          0  itMISS:          0  dtACCESS:          0  dtHIT:          0  dtMISS:          0
cpu0_L1I PREFETCH     ACCESS:   25736834  HIT:   20270510  MISS:    5466324  iACCESS:   25736834  iHIT:   20270510  iMISS:    5466324  dACCESS:          0  dHIT:          0  dMISS:          0  itACCESS:          0  itHIT:          0  itMISS:          0  dtACCESS:          0  dtHIT:          0  dtMISS:          0
cpu0_L1I WRITE        ACCESS:          0  HIT:          0  MISS:          0  iACCESS:          0  iHIT:          0  iMISS:          0  dACCESS:          0  dHIT:          0  dMISS:          0  itACCESS:          0  itHIT:          0  itMISS:          0  dtACCESS:          0  dtHIT:          0  dtMISS:          0
cpu0_L1I TRANSLATION  ACCESS:          0  HIT:          0  MISS:          0  iACCESS:          0  iHIT:          0  iMISS:          0  dACCESS:          0  dHIT:          0  dMISS:          0  itACCESS:          0  itHIT:          0  itMISS:          0  dtACCESS:          0  dtHIT:          0  dtMISS:          0
cpu0_L1I PREFETCH  REQUESTED:   27638251  ISSUED:   27637244  CROSSED:          0  USEFUL:    1786977  USELESS:     601330
cpu0_L1I AVERAGE iMISS LATENCY: 19.3345 cycles
cpu0_L1I AVERAGE dMISS LATENCY: 0 cycles
cpu0_L1I AVERAGE itMISS LATENCY: 0 cycles
cpu0_L1I AVERAGE dtMISS LATENCY: 0 cycles
cpu0_L1I PAGE CROSSINGS (TLB HIT):         0 
cpu0_L1I PAGE CROSSINGS (TLB MISS):         0 
cpu0_L1I AVERAGE MISS LATENCY: 19.3345 cycles
cpu0_ITLB TOTAL       ACCESS:   29420263  HIT:   27677393  MISS:    1742870  iACCESS:   29420263  iHIT:   27677393  iMISS:    1742870  dACCESS:          0  dHIT:          0  dMISS:          0  itACCESS:          0  itHIT:          0  itMISS:          0  dtACCESS:          0  dtHIT:          0  dtMISS:          0
cpu0_ITLB LOAD         ACCESS:   29420263  HIT:   27677393  MISS:    1742870  iACCESS:   29420263  iHIT:   27677393  iMISS:    1742870  dACCESS:          0  dHIT:          0  dMISS:          0  itACCESS:          0  itHIT:          0  itMISS:          0  dtACCESS:          0  dtHIT:          0  dtMISS:          0
cpu0_ITLB RFO          ACCESS:          0  HIT:          0  MISS:          0  iACCESS:          0  iHIT:          0  iMISS:          0  dACCESS:          0  dHIT:          0  dMISS:          0  itACCESS:          0  itHIT:          0  itMISS:          0  dtACCESS:          0  dtHIT:          0  dtMISS:          0
cpu0_ITLB PREFETCH     ACCESS:          0  HIT:          0  MISS:          0  iACCESS:          0  iHIT:          0  iMISS:          0  dACCESS:          0  dHIT:          0  dMISS:          0  itACCESS:          0  itHIT:          0  itMISS:          0  dtACCESS:          0  dtHIT:          0  dtMISS:          0
cpu0_ITLB WRITE        ACCESS:          0  HIT:          0  MISS:          0  iACCESS:          0  iHIT:          0  iMISS:          0  dACCESS:          0  dHIT:          0  dMISS:          0  itACCESS:          0  itHIT:          0  itMISS:          0  dtACCESS:          0  dtHIT:          0  dtMISS:          0
cpu0_ITLB TRANSLATION  ACCESS:          0  HIT:          0  MISS:          0  iACCESS:          0  iHIT:          0  iMISS:          0  dACCESS:          0  dHIT:          0  dMISS:          0  itACCESS:          0  itHIT:          0  itMISS:          0  dtACCESS:          0  dtHIT:          0  dtMISS:          0
cpu0_ITLB PREFETCH  REQUESTED:          0  ISSUED:          0  CROSSED:          0  USEFUL:     300830  USELESS:      56036
cpu0_ITLB AVERAGE iMISS LATENCY: 2.79857 cycles
cpu0_ITLB AVERAGE dMISS LATENCY: 0 cycles
cpu0_ITLB AVERAGE itMISS LATENCY: 0 cycles
cpu0_ITLB AVERAGE dtMISS LATENCY: 0 cycles
cpu0_ITLB PAGE CROSSINGS (TLB HIT):         0 
cpu0_ITLB PAGE CROSSINGS (TLB MISS):         0 
cpu0_ITLB AVERAGE MISS LATENCY: 2.79857 cycles
cpu0_DTLB TOTAL       ACCESS:   29886203  HIT:   25716990  MISS:    4169213  iACCESS:          0  iHIT:          0  iMISS:          0  dACCESS:   29886203  dHIT:   25716990  dMISS:    4169213  itACCESS:          0  itHIT:          0  itMISS:          0  dtACCESS:          0  dtHIT:          0  dtMISS:          0
cpu0_DTLB LOAD         ACCESS:   29886203  HIT:   25716990  MISS:    4169213  iACCESS:          0  iHIT:          0  iMISS:          0  dACCESS:   29886203  dHIT:   25716990  dMISS:    4169213  itACCESS:          0  itHIT:          0  itMISS:          0  dtACCESS:          0  dtHIT:          0  dtMISS:          0
cpu0_DTLB RFO          ACCESS:          0  HIT:          0  MISS:          0  iACCESS:          0  iHIT:          0  iMISS:          0  dACCESS:          0  dHIT:          0  dMISS:          0  itACCESS:          0  itHIT:          0  itMISS:          0  dtACCESS:          0  dtHIT:          0  dtMISS:          0
cpu0_DTLB PREFETCH     ACCESS:          0  HIT:          0  MISS:          0  iACCESS:          0  iHIT:          0  iMISS:          0  dACCESS:          0  dHIT:          0  dMISS:          0  itACCESS:          0  itHIT:          0  itMISS:          0  dtACCESS:          0  dtHIT:          0  dtMISS:          0
cpu0_DTLB WRITE        ACCESS:          0  HIT:          0  MISS:          0  iACCESS:          0  iHIT:          0  iMISS:          0  dACCESS:          0  dHIT:          0  dMISS:          0  itACCESS:          0  itHIT:          0  itMISS:          0  dtACCESS:          0  dtHIT:          0  dtMISS:          0
cpu0_DTLB TRANSLATION  ACCESS:          0  HIT:          0  MISS:          0  iACCESS:          0  iHIT:          0  iMISS:          0  dACCESS:          0  dHIT:          0  dMISS:          0  itACCESS:          0  itHIT:          0  itMISS:          0  dtACCESS:          0  dtHIT:          0  dtMISS:          0
cpu0_DTLB PREFETCH  REQUESTED:          0  ISSUED:          0  CROSSED:          0  USEFUL:          0  USELESS:          0
cpu0_DTLB AVERAGE iMISS LATENCY: 0 cycles
cpu0_DTLB AVERAGE dMISS LATENCY: 8.20643 cycles
cpu0_DTLB AVERAGE itMISS LATENCY: 0 cycles
cpu0_DTLB AVERAGE dtMISS LATENCY: 0 cycles
cpu0_DTLB PAGE CROSSINGS (TLB HIT):         0 
cpu0_DTLB PAGE CROSSINGS (TLB MISS):         0 
cpu0_DTLB AVERAGE MISS LATENCY: 8.20643 cycles
cpu0_STLB TOTAL       ACCESS:    2631206  HIT:    2432909  MISS:     198297  iACCESS:     356875  iHIT:     333706  iMISS:      23169  dACCESS:    2274331  dHIT:    2099203  dMISS:     175128  itACCESS:          0  itHIT:          0  itMISS:          0  dtACCESS:          0  dtHIT:          0  dtMISS:          0
cpu0_STLB LOAD         ACCESS:    2631206  HIT:    2432909  MISS:     198297  iACCESS:     356875  iHIT:     333706  iMISS:      23169  dACCESS:    2274331  dHIT:    2099203  dMISS:     175128  itACCESS:          0  itHIT:          0  itMISS:          0  dtACCESS:          0  dtHIT:          0  dtMISS:          0
cpu0_STLB RFO          ACCESS:          0  HIT:          0  MISS:          0  iACCESS:          0  iHIT:          0  iMISS:          0  dACCESS:          0  dHIT:          0  dMISS:          0  itACCESS:          0  itHIT:          0  itMISS:          0  dtACCESS:          0  dtHIT:          0  dtMISS:          0
cpu0_STLB PREFETCH     ACCESS:          0  HIT:          0  MISS:          0  iACCESS:          0  iHIT:          0  iMISS:          0  dACCESS:          0  dHIT:          0  dMISS:          0  itACCESS:          0  itHIT:          0  itMISS:          0  dtACCESS:          0  dtHIT:          0  dtMISS:          0
cpu0_STLB WRITE        ACCESS:          0  HIT:          0  MISS:          0  iACCESS:          0  iHIT:          0  iMISS:          0  dACCESS:          0  dHIT:          0  dMISS:          0  itACCESS:          0  itHIT:          0  itMISS:          0  dtACCESS:          0  dtHIT:          0  dtMISS:          0
cpu0_STLB TRANSLATION  ACCESS:          0  HIT:          0  MISS:          0  iACCESS:          0  iHIT:          0  iMISS:          0  dACCESS:          0  dHIT:          0  dMISS:          0  itACCESS:          0  itHIT:          0  itMISS:          0  dtACCESS:          0  dtHIT:          0  dtMISS:          0
cpu0_STLB PREFETCH  REQUESTED:          0  ISSUED:          0  CROSSED:          0  USEFUL:          0  USELESS:          0
cpu0_STLB AVERAGE iMISS LATENCY: 10.5562 cycles
cpu0_STLB AVERAGE dMISS LATENCY: 79.563 cycles
cpu0_STLB AVERAGE itMISS LATENCY: 0 cycles
cpu0_STLB AVERAGE dtMISS LATENCY: 0 cycles
cpu0_STLB PAGE CROSSINGS (TLB HIT):         0 
cpu0_STLB PAGE CROSSINGS (TLB MISS):         0 
cpu0_STLB AVERAGE MISS LATENCY: 90.1191 cycles
cpu0_L1D TOTAL       ACCESS:   46186688  HIT:   39120369  MISS:    7066319  iACCESS:          0  iHIT:          0  iMISS:          0  dACCESS:   45920942  dHIT:   39102725  dMISS:    6818217  itACCESS:      26608  itHIT:       2149  itMISS:      24459  dtACCESS:     239138  dtHIT:      15495  dtMISS:     223643
cpu0_L1D LOAD         ACCESS:   22322986  HIT:   18236116  MISS:    4086870  iACCESS:          0  iHIT:          0  iMISS:          0  dACCESS:   22322986  dHIT:   18236116  dMISS:    4086870  itACCESS:          0  itHIT:          0  itMISS:          0  dtACCESS:          0  dtHIT:          0  dtMISS:          0
cpu0_L1D RFO          ACCESS:          0  HIT:          0  MISS:          0  iACCESS:          0  iHIT:          0  iMISS:          0  dACCESS:          0  dHIT:          0  dMISS:          0  itACCESS:          0  itHIT:          0  itMISS:          0  dtACCESS:          0  dtHIT:          0  dtMISS:          0
cpu0_L1D PREFETCH     ACCESS:   13759127  HIT:   11472768  MISS:    2286359  iACCESS:          0  iHIT:          0  iMISS:          0  dACCESS:   13759127  dHIT:   11472768  dMISS:    2286359  itACCESS:          0  itHIT:          0  itMISS:          0  dtACCESS:          0  dtHIT:          0  dtMISS:          0
cpu0_L1D WRITE        ACCESS:    9838829  HIT:    9393841  MISS:     444988  iACCESS:          0  iHIT:          0  iMISS:          0  dACCESS:    9838829  dHIT:    9393841  dMISS:     444988  itACCESS:          0  itHIT:          0  itMISS:          0  dtACCESS:          0  dtHIT:          0  dtMISS:          0
cpu0_L1D TRANSLATION  ACCESS:     265746  HIT:      17644  MISS:     248102  iACCESS:          0  iHIT:          0  iMISS:          0  dACCESS:          0  dHIT:          0  dMISS:          0  itACCESS:      26608  itHIT:       2149  itMISS:      24459  dtACCESS:     239138  dtHIT:      15495  dtMISS:     223643
cpu0_L1D PREFETCH  REQUESTED:   22322986  ISSUED:   17731223  CROSSED:          0  USEFUL:     278809  USELESS:     692844
cpu0_L1D AVERAGE iMISS LATENCY: 0 cycles
cpu0_L1D AVERAGE dMISS LATENCY: 26.1722 cycles
cpu0_L1D AVERAGE itMISS LATENCY: 0.264468 cycles
cpu0_L1D AVERAGE dtMISS LATENCY: 1.91673 cycles
cpu0_L1D PAGE CROSSINGS (TLB HIT):         0 
cpu0_L1D PAGE CROSSINGS (TLB MISS):         0 
cpu0_L1D AVERAGE MISS LATENCY: 28.3534 cycles
cpu0_L2C TOTAL       ACCESS:    8265040  HIT:    2277890  MISS:    5987150  iACCESS:    3046540  iHIT:     766159  iMISS:    2280381  dACCESS:    4975145  dHIT:    1378758  dMISS:    3596387  itACCESS:      24366  itHIT:      12726  itMISS:      11640  dtACCESS:     218989  dtHIT:     120247  dtMISS:      98742
cpu0_L2C LOAD         ACCESS:    3145409  HIT:     969902  MISS:    2175507  iACCESS:     690612  iHIT:     126896  iMISS:     563716  dACCESS:    2454797  dHIT:     843006  dMISS:    1611791  itACCESS:          0  itHIT:          0  itMISS:          0  dtACCESS:          0  dtHIT:          0  dtMISS:          0
cpu0_L2C RFO          ACCESS:     171587  HIT:      57754  MISS:     113833  iACCESS:          0  iHIT:          0  iMISS:          0  dACCESS:     171587  dHIT:      57754  dMISS:     113833  itACCESS:          0  itHIT:          0  itMISS:          0  dtACCESS:          0  dtHIT:          0  dtMISS:          0
cpu0_L2C PREFETCH     ACCESS:    4458302  HIT:    1009140  MISS:    3449162  iACCESS:    2355928  iHIT:     639263  iMISS:    1716665  dACCESS:    2102374  dHIT:     369877  dMISS:    1732497  itACCESS:          0  itHIT:          0  itMISS:          0  dtACCESS:          0  dtHIT:          0  dtMISS:          0
cpu0_L2C WRITE        ACCESS:     246387  HIT:     108121  MISS:     138266  iACCESS:          0  iHIT:          0  iMISS:          0  dACCESS:     246387  dHIT:     108121  dMISS:     138266  itACCESS:          0  itHIT:          0  itMISS:          0  dtACCESS:          0  dtHIT:          0  dtMISS:          0
cpu0_L2C TRANSLATION  ACCESS:     243355  HIT:     132973  MISS:     110382  iACCESS:          0  iHIT:          0  iMISS:          0  dACCESS:          0  dHIT:          0  dMISS:          0  itACCESS:      24366  itHIT:      12726  itMISS:      11640  dtACCESS:     218989  dtHIT:     120247  dtMISS:      98742
cpu0_L2C PREFETCH  REQUESTED:    1357209  ISSUED:    1357174  CROSSED:          0  USEFUL:     357936  USELESS:     402879
cpu0_L2C AVERAGE iMISS LATENCY: 19.7765 cycles
cpu0_L2C AVERAGE dMISS LATENCY: 34.763 cycles
cpu0_L2C AVERAGE itMISS LATENCY: 0.273434 cycles
cpu0_L2C AVERAGE dtMISS LATENCY: 1.91504 cycles
cpu0_L2C PAGE CROSSINGS (TLB HIT):         0 
cpu0_L2C PAGE CROSSINGS (TLB MISS):         0 
cpu0_L2C AVERAGE MISS LATENCY: 56.7279 cycles
LLC TOTAL       ACCESS:    5807081  HIT:    4333828  MISS:    1473253  iACCESS:    2209473  iHIT:    1691049  iMISS:     518424  dACCESS:    3487226  dHIT:    2592635  dMISS:     894591  itACCESS:      11640  itHIT:       3600  itMISS:       8040  dtACCESS:      98742  dtHIT:      46544  dtMISS:      52198
LLC LOAD         ACCESS:    2170029  HIT:    1843284  MISS:     326745  iACCESS:     562298  iHIT:     455556  iMISS:     106742  dACCESS:    1607731  dHIT:    1387728  dMISS:     220003  itACCESS:          0  itHIT:          0  itMISS:          0  dtACCESS:          0  dtHIT:          0  dtMISS:          0
LLC RFO          ACCESS:     113832  HIT:      58394  MISS:      55438  iACCESS:          0  iHIT:          0  iMISS:          0  dACCESS:     113832  dHIT:      58394  dMISS:      55438  itACCESS:          0  itHIT:          0  itMISS:          0  dtACCESS:          0  dtHIT:          0  dtMISS:          0
LLC PREFETCH     ACCESS:    3275607  HIT:    2254801  MISS:    1020806  iACCESS:    1647175  iHIT:    1235493  iMISS:     411682  dACCESS:    1628432  dHIT:    1019308  dMISS:     609124  itACCESS:          0  itHIT:          0  itMISS:          0  dtACCESS:          0  dtHIT:          0  dtMISS:          0
LLC WRITE        ACCESS:     137231  HIT:     127205  MISS:      10026  iACCESS:          0  iHIT:          0  iMISS:          0  dACCESS:     137231  dHIT:     127205  dMISS:      10026  itACCESS:          0  itHIT:          0  itMISS:          0  dtACCESS:          0  dtHIT:          0  dtMISS:          0
LLC TRANSLATION  ACCESS:     110382  HIT:      50144  MISS:      60238  iACCESS:          0  iHIT:          0  iMISS:          0  dACCESS:          0  dHIT:          0  dMISS:          0  itACCESS:      11640  itHIT:       3600  itMISS:       8040  dtACCESS:      98742  dtHIT:      46544  dtMISS:      52198
LLC PREFETCH  REQUESTED:          0  ISSUED:          0  CROSSED:          0  USEFUL:          0  USELESS:          0
LLC AVERAGE iMISS LATENCY: 51.32 cycles
LLC AVERAGE dMISS LATENCY: 97.963 cycles
LLC AVERAGE itMISS LATENCY: 0.95611 cycles
LLC AVERAGE dtMISS LATENCY: 6.47455 cycles
LLC PAGE CROSSINGS (TLB HIT):         0 
LLC PAGE CROSSINGS (TLB MISS):         0 
LLC AVERAGE MISS LATENCY: 156.714 cycles

PageTableWalker TOTAL       ACCESS:      85975  
PageTableWalker AVERAGE LATENCY: 4.63404 cycles
PageTableWalker TOTAL LATENCY: 398411 cycles

DRAM Statistics
Channel 0
 RQ ROW_BUFFER_HIT:     454150
  ROW_BUFFER_MISS:     999256
 AVG DBUS CONGESTED CYCLE:     3.6377
 WQ ROW_BUFFER_HIT:      28198
  ROW_BUFFER_MISS:      21672  FULL:          0

