last_page:0x200000000000000
VMEM_RES_CAP:0x100000
PAGE_SIZE:4096
LOG2_PAGE_SIZE:12
LOG2_PAGE_TABLE_SIZE:9
page_table_levels:5
WARNING: physical memory size is smaller than virtual memory size
FDiP enabled with aggresivity 16

*** ChampSim Multicore Out-of-Order Simulator ***

Warmup Instructions: 50000000
Simulation Instructions: 100000000
Number of CPUs: 1
Small page size: 4096
Large page size: 2097152

CPU 0 Bimodal branch predictor
Basic BTB sets: 1024 ways: 8 indirect buffer size: 4096 RAS size: 64
Instruction page size distrubution: 0
Loading instruction page size distribution from /home/bsc/bsc018186/scratch/itp_asplos25_AE/dump/srv287_ap.pdst
Data page size distrubution: 0
Loading data page size distribution from /home/bsc/bsc018186/scratch/itp_asplos25_AE/dump/srv287_ap.pdst
cpu0_L2C IP-based stride prefetcher
cpu0_L1D next line prefetcher
cpu0_STLB using iTP with max lru@8
cpu0_STLB using iTP with instr@0 and data@2
Init sat counter with 3 bits (max:50).
cpu0_L1I next line prefetcher
Off-chip DRAM Size: 4 GiB Channels: 1 Width: 64-bit Data Rate: 3200 MT/s
Heartbeat CPU 0 instructions: 10000000 cycles: 2500203 heartbeat IPC: 3.99968 cumulative IPC: 3.99968 (Simulation time: 0 hr 0 min 37 sec) 
Heartbeat CPU 0 instructions: 20000000 cycles: 5367580 heartbeat IPC: 3.48751 cumulative IPC: 3.72608 (Simulation time: 0 hr 1 min 18 sec) 
Heartbeat CPU 0 instructions: 30000002 cycles: 8109470 heartbeat IPC: 3.64713 cumulative IPC: 3.69938 (Simulation time: 0 hr 1 min 59 sec) 
Heartbeat CPU 0 instructions: 40000000 cycles: 10610037 heartbeat IPC: 3.9991 cumulative IPC: 3.77002 (Simulation time: 0 hr 2 min 40 sec) 
Heartbeat CPU 0 instructions: 50000000 cycles: 13110132 heartbeat IPC: 3.99985 cumulative IPC: 3.81385 (Simulation time: 0 hr 3 min 21 sec) 
Warmup finished CPU 0 instructions: 50000000 cycles: 13110133 cumulative IPC: 3.81385 (Simulation time: 0 hr 3 min 21 sec) 

Warmup complete CPU 0 instructions: 50000000 cycles: 13110133 (Simulation time: 0 hr 3 min 21 sec) 

Heartbeat CPU 0 instructions: 60000001 cycles: 32166411 heartbeat IPC: 0.524762 cumulative IPC: 0.524762 (Simulation time: 0 hr 4 min 30 sec) 
Heartbeat CPU 0 instructions: 70000004 cycles: 52094161 heartbeat IPC: 0.501813 cumulative IPC: 0.513031 (Simulation time: 0 hr 5 min 42 sec) 
Heartbeat CPU 0 instructions: 80000000 cycles: 71757312 heartbeat IPC: 0.508566 cumulative IPC: 0.511534 (Simulation time: 0 hr 6 min 53 sec) 
Heartbeat CPU 0 instructions: 90000001 cycles: 92069423 heartbeat IPC: 0.492318 cumulative IPC: 0.506591 (Simulation time: 0 hr 8 min 6 sec) 
Heartbeat CPU 0 instructions: 100000003 cycles: 103129139 heartbeat IPC: 0.904183 cumulative IPC: 0.555439 (Simulation time: 0 hr 9 min 10 sec) 
*** Reached end of trace: /gpfs/projects/bsc18/MN4/bsc18/romol/ChampSim/traces/qualcomm_srv/srv287_ap.champsimtrace.xz
Heartbeat CPU 0 instructions: 110000000 cycles: 118603128 heartbeat IPC: 0.646246 cumulative IPC: 0.568759 (Simulation time: 0 hr 10 min 18 sec) 
Heartbeat CPU 0 instructions: 120000004 cycles: 134031348 heartbeat IPC: 0.648164 cumulative IPC: 0.57889 (Simulation time: 0 hr 11 min 28 sec) 
Heartbeat CPU 0 instructions: 130000003 cycles: 143945387 heartbeat IPC: 1.00868 cumulative IPC: 0.611457 (Simulation time: 0 hr 12 min 30 sec) 
Heartbeat CPU 0 instructions: 140000000 cycles: 163610624 heartbeat IPC: 0.508512 cumulative IPC: 0.598005 (Simulation time: 0 hr 13 min 43 sec) 
Heartbeat CPU 0 instructions: 150000002 cycles: 183417860 heartbeat IPC: 0.504867 cumulative IPC: 0.587173 (Simulation time: 0 hr 14 min 57 sec) 
Simulation finished CPU 0 instructions: 100000002 cycles: 170307728 cumulative IPC: 0.587173 (Simulation time: 0 hr 14 min 57 sec) 

Simulation complete CPU 0 instructions: 100000002 cycles: 170307728 (Simulation time: 0 hr 14 min 57 sec) 


ChampSim completed all CPUs

Saving instructions large page distribution to /home/bsc/bsc018186/scratch/itp_asplos25_AE/dump/srv287_ap.pdst...
Saving data large page distribution to /home/bsc/bsc018186/scratch/itp_asplos25_AE/dump/srv287_ap.pdst...
=== Simulation ===
CPU 0 runs /gpfs/projects/bsc18/MN4/bsc18/romol/ChampSim/traces/qualcomm_srv/srv287_ap.champsimtrace.xz

Region of Interest Statistics

CPU 0 cumulative IPC: 0.587173 instructions: 100000002 cycles: 170307728
CPU 0 Branch Prediction Accuracy: 84.7147% MPKI: 31.2456 Average ROB Occupancy at Mispredict: 12.9983
Branch type MPKI
BRANCH_DIRECT_JUMP: 1.11351
BRANCH_INDIRECT: 16.0629
BRANCH_CONDITIONAL: 9.81648
BRANCH_DIRECT_CALL: 2.07542
BRANCH_INDIRECT_CALL: 0.70669
BRANCH_RETURN: 1.47062

Instructions large pages: 0
Instructions small pages: 1294
Large page distribution for instructions: 0%

Data large pages: 0
Data small pages: 5342
Large page distribution for data: 0%

cpu0_L1I TOTAL       ACCESS:   34274891  HIT:   27536263  MISS:    6738628  iACCESS:   34274891  iHIT:   27536263  iMISS:    6738628  dACCESS:          0  dHIT:          0  dMISS:          0  itACCESS:          0  itHIT:          0  itMISS:          0  dtACCESS:          0  dtHIT:          0  dtMISS:          0
cpu0_L1I LOAD         ACCESS:    8379392  HIT:    6533782  MISS:    1845610  iACCESS:    8379392  iHIT:    6533782  iMISS:    1845610  dACCESS:          0  dHIT:          0  dMISS:          0  itACCESS:          0  itHIT:          0  itMISS:          0  dtACCESS:          0  dtHIT:          0  dtMISS:          0
cpu0_L1I RFO          ACCESS:          0  HIT:          0  MISS:          0  iACCESS:          0  iHIT:          0  iMISS:          0  dACCESS:          0  dHIT:          0  dMISS:          0  itACCESS:          0  itHIT:          0  itMISS:          0  dtACCESS:          0  dtHIT:          0  dtMISS:          0
cpu0_L1I PREFETCH     ACCESS:   25895499  HIT:   21002481  MISS:    4893018  iACCESS:   25895499  iHIT:   21002481  iMISS:    4893018  dACCESS:          0  dHIT:          0  dMISS:          0  itACCESS:          0  itHIT:          0  itMISS:          0  dtACCESS:          0  dtHIT:          0  dtMISS:          0
cpu0_L1I WRITE        ACCESS:          0  HIT:          0  MISS:          0  iACCESS:          0  iHIT:          0  iMISS:          0  dACCESS:          0  dHIT:          0  dMISS:          0  itACCESS:          0  itHIT:          0  itMISS:          0  dtACCESS:          0  dtHIT:          0  dtMISS:          0
cpu0_L1I TRANSLATION  ACCESS:          0  HIT:          0  MISS:          0  iACCESS:          0  iHIT:          0  iMISS:          0  dACCESS:          0  dHIT:          0  dMISS:          0  itACCESS:          0  itHIT:          0  itMISS:          0  dtACCESS:          0  dtHIT:          0  dtMISS:          0
cpu0_L1I PREFETCH  REQUESTED:   27613611  ISSUED:   27611989  CROSSED:          0  USEFUL:    1600531  USELESS:     542832
cpu0_L1I AVERAGE iMISS LATENCY: 20.0764 cycles
cpu0_L1I AVERAGE dMISS LATENCY: 0 cycles
cpu0_L1I AVERAGE itMISS LATENCY: 0 cycles
cpu0_L1I AVERAGE dtMISS LATENCY: 0 cycles
cpu0_L1I PAGE CROSSINGS (TLB HIT):         0 
cpu0_L1I PAGE CROSSINGS (TLB MISS):         0 
cpu0_L1I AVERAGE MISS LATENCY: 20.0764 cycles
cpu0_ITLB TOTAL       ACCESS:   28871421  HIT:   27302384  MISS:    1569037  iACCESS:   28871421  iHIT:   27302384  iMISS:    1569037  dACCESS:          0  dHIT:          0  dMISS:          0  itACCESS:          0  itHIT:          0  itMISS:          0  dtACCESS:          0  dtHIT:          0  dtMISS:          0
cpu0_ITLB LOAD         ACCESS:   28871421  HIT:   27302384  MISS:    1569037  iACCESS:   28871421  iHIT:   27302384  iMISS:    1569037  dACCESS:          0  dHIT:          0  dMISS:          0  itACCESS:          0  itHIT:          0  itMISS:          0  dtACCESS:          0  dtHIT:          0  dtMISS:          0
cpu0_ITLB RFO          ACCESS:          0  HIT:          0  MISS:          0  iACCESS:          0  iHIT:          0  iMISS:          0  dACCESS:          0  dHIT:          0  dMISS:          0  itACCESS:          0  itHIT:          0  itMISS:          0  dtACCESS:          0  dtHIT:          0  dtMISS:          0
cpu0_ITLB PREFETCH     ACCESS:          0  HIT:          0  MISS:          0  iACCESS:          0  iHIT:          0  iMISS:          0  dACCESS:          0  dHIT:          0  dMISS:          0  itACCESS:          0  itHIT:          0  itMISS:          0  dtACCESS:          0  dtHIT:          0  dtMISS:          0
cpu0_ITLB WRITE        ACCESS:          0  HIT:          0  MISS:          0  iACCESS:          0  iHIT:          0  iMISS:          0  dACCESS:          0  dHIT:          0  dMISS:          0  itACCESS:          0  itHIT:          0  itMISS:          0  dtACCESS:          0  dtHIT:          0  dtMISS:          0
cpu0_ITLB TRANSLATION  ACCESS:          0  HIT:          0  MISS:          0  iACCESS:          0  iHIT:          0  iMISS:          0  dACCESS:          0  dHIT:          0  dMISS:          0  itACCESS:          0  itHIT:          0  itMISS:          0  dtACCESS:          0  dtHIT:          0  dtMISS:          0
cpu0_ITLB PREFETCH  REQUESTED:          0  ISSUED:          0  CROSSED:          0  USEFUL:     269042  USELESS:      52390
cpu0_ITLB AVERAGE iMISS LATENCY: 2.97525 cycles
cpu0_ITLB AVERAGE dMISS LATENCY: 0 cycles
cpu0_ITLB AVERAGE itMISS LATENCY: 0 cycles
cpu0_ITLB AVERAGE dtMISS LATENCY: 0 cycles
cpu0_ITLB PAGE CROSSINGS (TLB HIT):         0 
cpu0_ITLB PAGE CROSSINGS (TLB MISS):         0 
cpu0_ITLB AVERAGE MISS LATENCY: 2.97525 cycles
cpu0_DTLB TOTAL       ACCESS:   31483213  HIT:   24992832  MISS:    6490381  iACCESS:          0  iHIT:          0  iMISS:          0  dACCESS:   31483213  dHIT:   24992832  dMISS:    6490381  itACCESS:          0  itHIT:          0  itMISS:          0  dtACCESS:          0  dtHIT:          0  dtMISS:          0
cpu0_DTLB LOAD         ACCESS:   31483213  HIT:   24992832  MISS:    6490381  iACCESS:          0  iHIT:          0  iMISS:          0  dACCESS:   31483213  dHIT:   24992832  dMISS:    6490381  itACCESS:          0  itHIT:          0  itMISS:          0  dtACCESS:          0  dtHIT:          0  dtMISS:          0
cpu0_DTLB RFO          ACCESS:          0  HIT:          0  MISS:          0  iACCESS:          0  iHIT:          0  iMISS:          0  dACCESS:          0  dHIT:          0  dMISS:          0  itACCESS:          0  itHIT:          0  itMISS:          0  dtACCESS:          0  dtHIT:          0  dtMISS:          0
cpu0_DTLB PREFETCH     ACCESS:          0  HIT:          0  MISS:          0  iACCESS:          0  iHIT:          0  iMISS:          0  dACCESS:          0  dHIT:          0  dMISS:          0  itACCESS:          0  itHIT:          0  itMISS:          0  dtACCESS:          0  dtHIT:          0  dtMISS:          0
cpu0_DTLB WRITE        ACCESS:          0  HIT:          0  MISS:          0  iACCESS:          0  iHIT:          0  iMISS:          0  dACCESS:          0  dHIT:          0  dMISS:          0  itACCESS:          0  itHIT:          0  itMISS:          0  dtACCESS:          0  dtHIT:          0  dtMISS:          0
cpu0_DTLB TRANSLATION  ACCESS:          0  HIT:          0  MISS:          0  iACCESS:          0  iHIT:          0  iMISS:          0  dACCESS:          0  dHIT:          0  dMISS:          0  itACCESS:          0  itHIT:          0  itMISS:          0  dtACCESS:          0  dtHIT:          0  dtMISS:          0
cpu0_DTLB PREFETCH  REQUESTED:          0  ISSUED:          0  CROSSED:          0  USEFUL:          0  USELESS:          0
cpu0_DTLB AVERAGE iMISS LATENCY: 0 cycles
cpu0_DTLB AVERAGE dMISS LATENCY: 6.46006 cycles
cpu0_DTLB AVERAGE itMISS LATENCY: 0 cycles
cpu0_DTLB AVERAGE dtMISS LATENCY: 0 cycles
cpu0_DTLB PAGE CROSSINGS (TLB HIT):         0 
cpu0_DTLB PAGE CROSSINGS (TLB MISS):         0 
cpu0_DTLB AVERAGE MISS LATENCY: 6.46006 cycles
cpu0_STLB TOTAL       ACCESS:    3602137  HIT:    3415373  MISS:     186764  iACCESS:     321461  iHIT:     297514  iMISS:      23947  dACCESS:    3280676  dHIT:    3117859  dMISS:     162817  itACCESS:          0  itHIT:          0  itMISS:          0  dtACCESS:          0  dtHIT:          0  dtMISS:          0
cpu0_STLB LOAD         ACCESS:    3602137  HIT:    3415373  MISS:     186764  iACCESS:     321461  iHIT:     297514  iMISS:      23947  dACCESS:    3280676  dHIT:    3117859  dMISS:     162817  itACCESS:          0  itHIT:          0  itMISS:          0  dtACCESS:          0  dtHIT:          0  dtMISS:          0
cpu0_STLB RFO          ACCESS:          0  HIT:          0  MISS:          0  iACCESS:          0  iHIT:          0  iMISS:          0  dACCESS:          0  dHIT:          0  dMISS:          0  itACCESS:          0  itHIT:          0  itMISS:          0  dtACCESS:          0  dtHIT:          0  dtMISS:          0
cpu0_STLB PREFETCH     ACCESS:          0  HIT:          0  MISS:          0  iACCESS:          0  iHIT:          0  iMISS:          0  dACCESS:          0  dHIT:          0  dMISS:          0  itACCESS:          0  itHIT:          0  itMISS:          0  dtACCESS:          0  dtHIT:          0  dtMISS:          0
cpu0_STLB WRITE        ACCESS:          0  HIT:          0  MISS:          0  iACCESS:          0  iHIT:          0  iMISS:          0  dACCESS:          0  dHIT:          0  dMISS:          0  itACCESS:          0  itHIT:          0  itMISS:          0  dtACCESS:          0  dtHIT:          0  dtMISS:          0
cpu0_STLB TRANSLATION  ACCESS:          0  HIT:          0  MISS:          0  iACCESS:          0  iHIT:          0  iMISS:          0  dACCESS:          0  dHIT:          0  dMISS:          0  itACCESS:          0  itHIT:          0  itMISS:          0  dtACCESS:          0  dtHIT:          0  dtMISS:          0
cpu0_STLB PREFETCH  REQUESTED:          0  ISSUED:          0  CROSSED:          0  USEFUL:          0  USELESS:          0
cpu0_STLB AVERAGE iMISS LATENCY: 11.5475 cycles
cpu0_STLB AVERAGE dMISS LATENCY: 81.7206 cycles
cpu0_STLB AVERAGE itMISS LATENCY: 0 cycles
cpu0_STLB AVERAGE dtMISS LATENCY: 0 cycles
cpu0_STLB PAGE CROSSINGS (TLB HIT):         0 
cpu0_STLB PAGE CROSSINGS (TLB MISS):         0 
cpu0_STLB AVERAGE MISS LATENCY: 93.2681 cycles
cpu0_L1D TOTAL       ACCESS:   49201671  HIT:   39398964  MISS:    9802707  iACCESS:          0  iHIT:          0  iMISS:          0  dACCESS:   48952171  dHIT:   39382771  dMISS:    9569400  itACCESS:      27224  itHIT:       2041  itMISS:      25183  dtACCESS:     222276  dtHIT:      14152  dtMISS:     208124
cpu0_L1D LOAD         ACCESS:   24639889  HIT:   18602046  MISS:    6037843  iACCESS:          0  iHIT:          0  iMISS:          0  dACCESS:   24639889  dHIT:   18602046  dMISS:    6037843  itACCESS:          0  itHIT:          0  itMISS:          0  dtACCESS:          0  dtHIT:          0  dtMISS:          0
cpu0_L1D RFO          ACCESS:          0  HIT:          0  MISS:          0  iACCESS:          0  iHIT:          0  iMISS:          0  dACCESS:          0  dHIT:          0  dMISS:          0  itACCESS:          0  itHIT:          0  itMISS:          0  dtACCESS:          0  dtHIT:          0  dtMISS:          0
cpu0_L1D PREFETCH     ACCESS:   14837156  HIT:   11732655  MISS:    3104501  iACCESS:          0  iHIT:          0  iMISS:          0  dACCESS:   14837156  dHIT:   11732655  dMISS:    3104501  itACCESS:          0  itHIT:          0  itMISS:          0  dtACCESS:          0  dtHIT:          0  dtMISS:          0
cpu0_L1D WRITE        ACCESS:    9475126  HIT:    9048070  MISS:     427056  iACCESS:          0  iHIT:          0  iMISS:          0  dACCESS:    9475126  dHIT:    9048070  dMISS:     427056  itACCESS:          0  itHIT:          0  itMISS:          0  dtACCESS:          0  dtHIT:          0  dtMISS:          0
cpu0_L1D TRANSLATION  ACCESS:     249500  HIT:      16193  MISS:     233307  iACCESS:          0  iHIT:          0  iMISS:          0  dACCESS:          0  dHIT:          0  dMISS:          0  itACCESS:      27224  itHIT:       2041  itMISS:      25183  dtACCESS:     222276  dtHIT:      14152  dtMISS:     208124
cpu0_L1D PREFETCH  REQUESTED:   24639889  ISSUED:   17957662  CROSSED:          0  USEFUL:     252037  USELESS:     844246
cpu0_L1D AVERAGE iMISS LATENCY: 0 cycles
cpu0_L1D AVERAGE dMISS LATENCY: 21.5168 cycles
cpu0_L1D AVERAGE itMISS LATENCY: 0.195267 cycles
cpu0_L1D AVERAGE dtMISS LATENCY: 1.33758 cycles
cpu0_L1D PAGE CROSSINGS (TLB HIT):         0 
cpu0_L1D PAGE CROSSINGS (TLB MISS):         0 
cpu0_L1D AVERAGE MISS LATENCY: 23.0497 cycles
cpu0_L2C TOTAL       ACCESS:    9446412  HIT:    3224880  MISS:    6221532  iACCESS:    2734138  iHIT:     658968  iMISS:    2075170  dACCESS:    6484258  dHIT:    2441367  dMISS:    4042891  itACCESS:      25183  itHIT:      13651  itMISS:      11532  dtACCESS:     202833  dtHIT:     110894  dtMISS:      91939
cpu0_L2C LOAD         ACCESS:    4568823  HIT:    1955191  MISS:    2613632  iACCESS:     619938  iHIT:     108776  iMISS:     511162  dACCESS:    3948885  dHIT:    1846415  dMISS:    2102470  itACCESS:          0  itHIT:          0  itMISS:          0  dtACCESS:          0  dtHIT:          0  dtMISS:          0
cpu0_L2C RFO          ACCESS:     173791  HIT:      54708  MISS:     119083  iACCESS:          0  iHIT:          0  iMISS:          0  dACCESS:     173791  dHIT:      54708  dMISS:     119083  itACCESS:          0  itHIT:          0  itMISS:          0  dtACCESS:          0  dtHIT:          0  dtMISS:          0
cpu0_L2C PREFETCH     ACCESS:    4251540  HIT:     994263  MISS:    3257277  iACCESS:    2114200  iHIT:     550192  iMISS:    1564008  dACCESS:    2137340  dHIT:     444071  dMISS:    1693269  itACCESS:          0  itHIT:          0  itMISS:          0  dtACCESS:          0  dtHIT:          0  dtMISS:          0
cpu0_L2C WRITE        ACCESS:     224242  HIT:      96173  MISS:     128069  iACCESS:          0  iHIT:          0  iMISS:          0  dACCESS:     224242  dHIT:      96173  dMISS:     128069  itACCESS:          0  itHIT:          0  itMISS:          0  dtACCESS:          0  dtHIT:          0  dtMISS:          0
cpu0_L2C TRANSLATION  ACCESS:     228016  HIT:     124545  MISS:     103471  iACCESS:          0  iHIT:          0  iMISS:          0  dACCESS:          0  dHIT:          0  dMISS:          0  itACCESS:      25183  itHIT:      13651  itMISS:      11532  dtACCESS:     202833  dtHIT:     110894  dtMISS:      91939
cpu0_L2C PREFETCH  REQUESTED:    1241434  ISSUED:    1241433  CROSSED:          0  USEFUL:     324334  USELESS:     356960
cpu0_L2C AVERAGE iMISS LATENCY: 17.8275 cycles
cpu0_L2C AVERAGE dMISS LATENCY: 34.0704 cycles
cpu0_L2C AVERAGE itMISS LATENCY: 0.269257 cycles
cpu0_L2C AVERAGE dtMISS LATENCY: 1.79792 cycles
cpu0_L2C PAGE CROSSINGS (TLB HIT):         0 
cpu0_L2C PAGE CROSSINGS (TLB MISS):         0 
cpu0_L2C AVERAGE MISS LATENCY: 53.9651 cycles
LLC TOTAL       ACCESS:    6041645  HIT:    4650071  MISS:    1391574  iACCESS:    2011982  iHIT:    1522834  iMISS:     489148  dACCESS:    3926192  dHIT:    3083048  dMISS:     843144  itACCESS:      11532  itHIT:       3248  itMISS:       8284  dtACCESS:      91939  dtHIT:      40941  dtMISS:      50998
LLC LOAD         ACCESS:    2607734  HIT:    2291882  MISS:     315852  iACCESS:     510089  iHIT:     409288  iMISS:     100801  dACCESS:    2097645  dHIT:    1882594  dMISS:     215051  itACCESS:          0  itHIT:          0  itMISS:          0  dtACCESS:          0  dtHIT:          0  dtMISS:          0
LLC RFO          ACCESS:     119081  HIT:      69794  MISS:      49287  iACCESS:          0  iHIT:          0  iMISS:          0  dACCESS:     119081  dHIT:      69794  dMISS:      49287  itACCESS:          0  itHIT:          0  itMISS:          0  dtACCESS:          0  dtHIT:          0  dtMISS:          0
LLC PREFETCH     ACCESS:    3084218  HIT:    2126910  MISS:     957308  iACCESS:    1501893  iHIT:    1113546  iMISS:     388347  dACCESS:    1582325  dHIT:    1013364  dMISS:     568961  itACCESS:          0  itHIT:          0  itMISS:          0  dtACCESS:          0  dtHIT:          0  dtMISS:          0
LLC WRITE        ACCESS:     127141  HIT:     117296  MISS:       9845  iACCESS:          0  iHIT:          0  iMISS:          0  dACCESS:     127141  dHIT:     117296  dMISS:       9845  itACCESS:          0  itHIT:          0  itMISS:          0  dtACCESS:          0  dtHIT:          0  dtMISS:          0
LLC TRANSLATION  ACCESS:     103471  HIT:      44189  MISS:      59282  iACCESS:          0  iHIT:          0  iMISS:          0  dACCESS:          0  dHIT:          0  dMISS:          0  itACCESS:      11532  itHIT:       3248  itMISS:       8284  dtACCESS:      91939  dtHIT:      40941  dtMISS:      50998
LLC PREFETCH  REQUESTED:          0  ISSUED:          0  CROSSED:          0  USEFUL:          0  USELESS:          0
LLC AVERAGE iMISS LATENCY: 51.6976 cycles
LLC AVERAGE dMISS LATENCY: 100.043 cycles
LLC AVERAGE itMISS LATENCY: 1.04087 cycles
LLC AVERAGE dtMISS LATENCY: 6.74779 cycles
LLC PAGE CROSSINGS (TLB HIT):         0 
LLC PAGE CROSSINGS (TLB MISS):         0 
LLC AVERAGE MISS LATENCY: 159.529 cycles

PageTableWalker TOTAL       ACCESS:      89258  
PageTableWalker AVERAGE LATENCY: 4.61741 cycles
PageTableWalker TOTAL LATENCY: 412140 cycles

DRAM Statistics
Channel 0
 RQ ROW_BUFFER_HIT:     404500
  ROW_BUFFER_MISS:     967196
 AVG DBUS CONGESTED CYCLE:    3.64077
 WQ ROW_BUFFER_HIT:      27981
  ROW_BUFFER_MISS:      21751  FULL:          0

