last_page:0x200000000000000
VMEM_RES_CAP:0x100000
PAGE_SIZE:4096
LOG2_PAGE_SIZE:12
LOG2_PAGE_TABLE_SIZE:9
page_table_levels:5
WARNING: physical memory size is smaller than virtual memory size
FDiP enabled with aggresivity 16

*** ChampSim Multicore Out-of-Order Simulator ***

Warmup Instructions: 50000000
Simulation Instructions: 100000000
Number of CPUs: 1
Small page size: 4096
Large page size: 2097152

CPU 0 Bimodal branch predictor
Basic BTB sets: 1024 ways: 8 indirect buffer size: 4096 RAS size: 64
Instruction page size distrubution: 0
Loading instruction page size distribution from /home/bsc/bsc018186/scratch/itp_asplos25_AE/dump/srv207_ap.pdst
Data page size distrubution: 0
Loading data page size distribution from /home/bsc/bsc018186/scratch/itp_asplos25_AE/dump/srv207_ap.pdst
cpu0_L2C IP-based stride prefetcher
cpu0_L2C is using PTP replacement policy:
	TLB_STRESS_THRESHOLD:0
	PTE_EVICTION_RATIO:0
cpu0_L1D next line prefetcher
cpu0_STLB using iTP with max lru@8
cpu0_STLB using iTP with instr@0 and data@2
Init sat counter with 3 bits (max:50).
cpu0_L1I next line prefetcher
Off-chip DRAM Size: 4 GiB Channels: 1 Width: 64-bit Data Rate: 3200 MT/s
Heartbeat CPU 0 instructions: 10000002 cycles: 2501560 heartbeat IPC: 3.99751 cumulative IPC: 3.99751 (Simulation time: 0 hr 0 min 41 sec) 
Heartbeat CPU 0 instructions: 20000001 cycles: 5001898 heartbeat IPC: 3.99946 cumulative IPC: 3.99849 (Simulation time: 0 hr 1 min 24 sec) 
Heartbeat CPU 0 instructions: 30000003 cycles: 7501965 heartbeat IPC: 3.9999 cumulative IPC: 3.99896 (Simulation time: 0 hr 2 min 7 sec) 
Heartbeat CPU 0 instructions: 40000003 cycles: 10002240 heartbeat IPC: 3.99957 cumulative IPC: 3.99911 (Simulation time: 0 hr 2 min 49 sec) 
Heartbeat CPU 0 instructions: 50000001 cycles: 12502354 heartbeat IPC: 3.99982 cumulative IPC: 3.99925 (Simulation time: 0 hr 3 min 33 sec) 
Warmup finished CPU 0 instructions: 50000001 cycles: 12502355 cumulative IPC: 3.99925 (Simulation time: 0 hr 3 min 33 sec) 

Warmup complete CPU 0 instructions: 50000001 cycles: 12502355 (Simulation time: 0 hr 3 min 33 sec) 

Heartbeat CPU 0 instructions: 60000002 cycles: 33179992 heartbeat IPC: 0.483615 cumulative IPC: 0.483615 (Simulation time: 0 hr 4 min 51 sec) 
Heartbeat CPU 0 instructions: 70000003 cycles: 54721040 heartbeat IPC: 0.464231 cumulative IPC: 0.473724 (Simulation time: 0 hr 6 min 9 sec) 
Heartbeat CPU 0 instructions: 80000000 cycles: 75773202 heartbeat IPC: 0.475011 cumulative IPC: 0.474153 (Simulation time: 0 hr 7 min 24 sec) 
Heartbeat CPU 0 instructions: 90000002 cycles: 97332986 heartbeat IPC: 0.463827 cumulative IPC: 0.471528 (Simulation time: 0 hr 8 min 43 sec) 
Heartbeat CPU 0 instructions: 100000002 cycles: 118646751 heartbeat IPC: 0.469181 cumulative IPC: 0.471057 (Simulation time: 0 hr 10 min 2 sec) 
*** Reached end of trace: /gpfs/projects/bsc18/MN4/bsc18/romol/ChampSim/traces/qualcomm_srv/srv207_ap.champsimtrace.xz
Heartbeat CPU 0 instructions: 110000004 cycles: 140868629 heartbeat IPC: 0.450008 cumulative IPC: 0.467413 (Simulation time: 0 hr 11 min 18 sec) 
Heartbeat CPU 0 instructions: 120000004 cycles: 162063111 heartbeat IPC: 0.471821 cumulative IPC: 0.468038 (Simulation time: 0 hr 12 min 37 sec) 
Heartbeat CPU 0 instructions: 130000000 cycles: 184226067 heartbeat IPC: 0.451204 cumulative IPC: 0.465865 (Simulation time: 0 hr 13 min 57 sec) 
Heartbeat CPU 0 instructions: 140000001 cycles: 206152023 heartbeat IPC: 0.456081 cumulative IPC: 0.464757 (Simulation time: 0 hr 15 min 13 sec) 
Heartbeat CPU 0 instructions: 150000002 cycles: 229395435 heartbeat IPC: 0.43023 cumulative IPC: 0.461057 (Simulation time: 0 hr 16 min 34 sec) 
Simulation finished CPU 0 instructions: 100000001 cycles: 216893081 cumulative IPC: 0.461057 (Simulation time: 0 hr 16 min 34 sec) 

Simulation complete CPU 0 instructions: 100000001 cycles: 216893081 (Simulation time: 0 hr 16 min 34 sec) 


ChampSim completed all CPUs

Saving instructions large page distribution to /home/bsc/bsc018186/scratch/itp_asplos25_AE/dump/srv207_ap.pdst...
Saving data large page distribution to /home/bsc/bsc018186/scratch/itp_asplos25_AE/dump/srv207_ap.pdst...
=== Simulation ===
CPU 0 runs /gpfs/projects/bsc18/MN4/bsc18/romol/ChampSim/traces/qualcomm_srv/srv207_ap.champsimtrace.xz

Region of Interest Statistics

CPU 0 cumulative IPC: 0.461057 instructions: 100000001 cycles: 216893081
CPU 0 Branch Prediction Accuracy: 79.9419% MPKI: 36.2706 Average ROB Occupancy at Mispredict: 11.68
Branch type MPKI
BRANCH_DIRECT_JUMP: 1.35835
BRANCH_INDIRECT: 18.5563
BRANCH_CONDITIONAL: 11.2955
BRANCH_DIRECT_CALL: 2.47044
BRANCH_INDIRECT_CALL: 0.68596
BRANCH_RETURN: 1.90409

Instructions large pages: 0
Instructions small pages: 1279
Large page distribution for instructions: 0%

Data large pages: 0
Data small pages: 6352
Large page distribution for data: 0%

cpu0_L1I TOTAL       ACCESS:   34991034  HIT:   26956649  MISS:    8034385  iACCESS:   34991034  iHIT:   26956649  iMISS:    8034385  dACCESS:          0  dHIT:          0  dMISS:          0  itACCESS:          0  itHIT:          0  itMISS:          0  dtACCESS:          0  dtHIT:          0  dtMISS:          0
cpu0_L1I LOAD         ACCESS:    9799438  HIT:    7575876  MISS:    2223562  iACCESS:    9799438  iHIT:    7575876  iMISS:    2223562  dACCESS:          0  dHIT:          0  dMISS:          0  itACCESS:          0  itHIT:          0  itMISS:          0  dtACCESS:          0  dtHIT:          0  dtMISS:          0
cpu0_L1I RFO          ACCESS:          0  HIT:          0  MISS:          0  iACCESS:          0  iHIT:          0  iMISS:          0  dACCESS:          0  dHIT:          0  dMISS:          0  itACCESS:          0  itHIT:          0  itMISS:          0  dtACCESS:          0  dtHIT:          0  dtMISS:          0
cpu0_L1I PREFETCH     ACCESS:   25191596  HIT:   19380773  MISS:    5810823  iACCESS:   25191596  iHIT:   19380773  iMISS:    5810823  dACCESS:          0  dHIT:          0  dMISS:          0  itACCESS:          0  itHIT:          0  itMISS:          0  dtACCESS:          0  dtHIT:          0  dtMISS:          0
cpu0_L1I WRITE        ACCESS:          0  HIT:          0  MISS:          0  iACCESS:          0  iHIT:          0  iMISS:          0  dACCESS:          0  dHIT:          0  dMISS:          0  itACCESS:          0  itHIT:          0  itMISS:          0  dtACCESS:          0  dtHIT:          0  dtMISS:          0
cpu0_L1I TRANSLATION  ACCESS:          0  HIT:          0  MISS:          0  iACCESS:          0  iHIT:          0  iMISS:          0  dACCESS:          0  dHIT:          0  dMISS:          0  itACCESS:          0  itHIT:          0  itMISS:          0  dtACCESS:          0  dtHIT:          0  dtMISS:          0
cpu0_L1I PREFETCH  REQUESTED:   27421190  ISSUED:   27421100  CROSSED:          0  USEFUL:    1947246  USELESS:     698176
cpu0_L1I AVERAGE iMISS LATENCY: 21.5106 cycles
cpu0_L1I AVERAGE dMISS LATENCY: 0 cycles
cpu0_L1I AVERAGE itMISS LATENCY: 0 cycles
cpu0_L1I AVERAGE dtMISS LATENCY: 0 cycles
cpu0_L1I PAGE CROSSINGS (TLB HIT):         0 
cpu0_L1I PAGE CROSSINGS (TLB MISS):         0 
cpu0_L1I AVERAGE MISS LATENCY: 21.5106 cycles
cpu0_ITLB TOTAL       ACCESS:   29578443  HIT:   27649206  MISS:    1929237  iACCESS:   29578443  iHIT:   27649206  iMISS:    1929237  dACCESS:          0  dHIT:          0  dMISS:          0  itACCESS:          0  itHIT:          0  itMISS:          0  dtACCESS:          0  dtHIT:          0  dtMISS:          0
cpu0_ITLB LOAD         ACCESS:   29578443  HIT:   27649206  MISS:    1929237  iACCESS:   29578443  iHIT:   27649206  iMISS:    1929237  dACCESS:          0  dHIT:          0  dMISS:          0  itACCESS:          0  itHIT:          0  itMISS:          0  dtACCESS:          0  dtHIT:          0  dtMISS:          0
cpu0_ITLB RFO          ACCESS:          0  HIT:          0  MISS:          0  iACCESS:          0  iHIT:          0  iMISS:          0  dACCESS:          0  dHIT:          0  dMISS:          0  itACCESS:          0  itHIT:          0  itMISS:          0  dtACCESS:          0  dtHIT:          0  dtMISS:          0
cpu0_ITLB PREFETCH     ACCESS:          0  HIT:          0  MISS:          0  iACCESS:          0  iHIT:          0  iMISS:          0  dACCESS:          0  dHIT:          0  dMISS:          0  itACCESS:          0  itHIT:          0  itMISS:          0  dtACCESS:          0  dtHIT:          0  dtMISS:          0
cpu0_ITLB WRITE        ACCESS:          0  HIT:          0  MISS:          0  iACCESS:          0  iHIT:          0  iMISS:          0  dACCESS:          0  dHIT:          0  dMISS:          0  itACCESS:          0  itHIT:          0  itMISS:          0  dtACCESS:          0  dtHIT:          0  dtMISS:          0
cpu0_ITLB TRANSLATION  ACCESS:          0  HIT:          0  MISS:          0  iACCESS:          0  iHIT:          0  iMISS:          0  dACCESS:          0  dHIT:          0  dMISS:          0  itACCESS:          0  itHIT:          0  itMISS:          0  dtACCESS:          0  dtHIT:          0  dtMISS:          0
cpu0_ITLB PREFETCH  REQUESTED:          0  ISSUED:          0  CROSSED:          0  USEFUL:     330881  USELESS:      69869
cpu0_ITLB AVERAGE iMISS LATENCY: 4.43878 cycles
cpu0_ITLB AVERAGE dMISS LATENCY: 0 cycles
cpu0_ITLB AVERAGE itMISS LATENCY: 0 cycles
cpu0_ITLB AVERAGE dtMISS LATENCY: 0 cycles
cpu0_ITLB PAGE CROSSINGS (TLB HIT):         0 
cpu0_ITLB PAGE CROSSINGS (TLB MISS):         0 
cpu0_ITLB AVERAGE MISS LATENCY: 4.43878 cycles
cpu0_DTLB TOTAL       ACCESS:   28772900  HIT:   26814922  MISS:    1957978  iACCESS:          0  iHIT:          0  iMISS:          0  dACCESS:   28772900  dHIT:   26814922  dMISS:    1957978  itACCESS:          0  itHIT:          0  itMISS:          0  dtACCESS:          0  dtHIT:          0  dtMISS:          0
cpu0_DTLB LOAD         ACCESS:   28772900  HIT:   26814922  MISS:    1957978  iACCESS:          0  iHIT:          0  iMISS:          0  dACCESS:   28772900  dHIT:   26814922  dMISS:    1957978  itACCESS:          0  itHIT:          0  itMISS:          0  dtACCESS:          0  dtHIT:          0  dtMISS:          0
cpu0_DTLB RFO          ACCESS:          0  HIT:          0  MISS:          0  iACCESS:          0  iHIT:          0  iMISS:          0  dACCESS:          0  dHIT:          0  dMISS:          0  itACCESS:          0  itHIT:          0  itMISS:          0  dtACCESS:          0  dtHIT:          0  dtMISS:          0
cpu0_DTLB PREFETCH     ACCESS:          0  HIT:          0  MISS:          0  iACCESS:          0  iHIT:          0  iMISS:          0  dACCESS:          0  dHIT:          0  dMISS:          0  itACCESS:          0  itHIT:          0  itMISS:          0  dtACCESS:          0  dtHIT:          0  dtMISS:          0
cpu0_DTLB WRITE        ACCESS:          0  HIT:          0  MISS:          0  iACCESS:          0  iHIT:          0  iMISS:          0  dACCESS:          0  dHIT:          0  dMISS:          0  itACCESS:          0  itHIT:          0  itMISS:          0  dtACCESS:          0  dtHIT:          0  dtMISS:          0
cpu0_DTLB TRANSLATION  ACCESS:          0  HIT:          0  MISS:          0  iACCESS:          0  iHIT:          0  iMISS:          0  dACCESS:          0  dHIT:          0  dMISS:          0  itACCESS:          0  itHIT:          0  itMISS:          0  dtACCESS:          0  dtHIT:          0  dtMISS:          0
cpu0_DTLB PREFETCH  REQUESTED:          0  ISSUED:          0  CROSSED:          0  USEFUL:          0  USELESS:          0
cpu0_DTLB AVERAGE iMISS LATENCY: 0 cycles
cpu0_DTLB AVERAGE dMISS LATENCY: 21.7527 cycles
cpu0_DTLB AVERAGE itMISS LATENCY: 0 cycles
cpu0_DTLB AVERAGE dtMISS LATENCY: 0 cycles
cpu0_DTLB PAGE CROSSINGS (TLB HIT):         0 
cpu0_DTLB PAGE CROSSINGS (TLB MISS):         0 
cpu0_DTLB AVERAGE MISS LATENCY: 21.7527 cycles
cpu0_STLB TOTAL       ACCESS:    1571523  HIT:    1325094  MISS:     246429  iACCESS:     400754  iHIT:     366067  iMISS:      34687  dACCESS:    1170769  dHIT:     959027  dMISS:     211742  itACCESS:          0  itHIT:          0  itMISS:          0  dtACCESS:          0  dtHIT:          0  dtMISS:          0
cpu0_STLB LOAD         ACCESS:    1571523  HIT:    1325094  MISS:     246429  iACCESS:     400754  iHIT:     366067  iMISS:      34687  dACCESS:    1170769  dHIT:     959027  dMISS:     211742  itACCESS:          0  itHIT:          0  itMISS:          0  dtACCESS:          0  dtHIT:          0  dtMISS:          0
cpu0_STLB RFO          ACCESS:          0  HIT:          0  MISS:          0  iACCESS:          0  iHIT:          0  iMISS:          0  dACCESS:          0  dHIT:          0  dMISS:          0  itACCESS:          0  itHIT:          0  itMISS:          0  dtACCESS:          0  dtHIT:          0  dtMISS:          0
cpu0_STLB PREFETCH     ACCESS:          0  HIT:          0  MISS:          0  iACCESS:          0  iHIT:          0  iMISS:          0  dACCESS:          0  dHIT:          0  dMISS:          0  itACCESS:          0  itHIT:          0  itMISS:          0  dtACCESS:          0  dtHIT:          0  dtMISS:          0
cpu0_STLB WRITE        ACCESS:          0  HIT:          0  MISS:          0  iACCESS:          0  iHIT:          0  iMISS:          0  dACCESS:          0  dHIT:          0  dMISS:          0  itACCESS:          0  itHIT:          0  itMISS:          0  dtACCESS:          0  dtHIT:          0  dtMISS:          0
cpu0_STLB TRANSLATION  ACCESS:          0  HIT:          0  MISS:          0  iACCESS:          0  iHIT:          0  iMISS:          0  dACCESS:          0  dHIT:          0  dMISS:          0  itACCESS:          0  itHIT:          0  itMISS:          0  dtACCESS:          0  dtHIT:          0  dtMISS:          0
cpu0_STLB PREFETCH  REQUESTED:          0  ISSUED:          0  CROSSED:          0  USEFUL:          0  USELESS:          0
cpu0_STLB AVERAGE iMISS LATENCY: 22.0257 cycles
cpu0_STLB AVERAGE dMISS LATENCY: 134.559 cycles
cpu0_STLB AVERAGE itMISS LATENCY: 0 cycles
cpu0_STLB AVERAGE dtMISS LATENCY: 0 cycles
cpu0_STLB PAGE CROSSINGS (TLB HIT):         0 
cpu0_STLB PAGE CROSSINGS (TLB MISS):         0 
cpu0_STLB AVERAGE MISS LATENCY: 156.585 cycles
cpu0_L1D TOTAL       ACCESS:   44329282  HIT:   39356732  MISS:    4972550  iACCESS:          0  iHIT:          0  iMISS:          0  dACCESS:   43989581  dHIT:   39336351  dMISS:    4653230  itACCESS:      39787  itHIT:       3097  itMISS:      36690  dtACCESS:     299914  dtHIT:      17284  dtMISS:     282630
cpu0_L1D LOAD         ACCESS:   20354380  HIT:   18180021  MISS:    2174359  iACCESS:          0  iHIT:          0  iMISS:          0  dACCESS:   20354380  dHIT:   18180021  dMISS:    2174359  itACCESS:          0  itHIT:          0  itMISS:          0  dtACCESS:          0  dtHIT:          0  dtMISS:          0
cpu0_L1D RFO          ACCESS:          0  HIT:          0  MISS:          0  iACCESS:          0  iHIT:          0  iMISS:          0  dACCESS:          0  dHIT:          0  dMISS:          0  itACCESS:          0  itHIT:          0  itMISS:          0  dtACCESS:          0  dtHIT:          0  dtMISS:          0
cpu0_L1D PREFETCH     ACCESS:   13550623  HIT:   11554905  MISS:    1995718  iACCESS:          0  iHIT:          0  iMISS:          0  dACCESS:   13550623  dHIT:   11554905  dMISS:    1995718  itACCESS:          0  itHIT:          0  itMISS:          0  dtACCESS:          0  dtHIT:          0  dtMISS:          0
cpu0_L1D WRITE        ACCESS:   10084578  HIT:    9601425  MISS:     483153  iACCESS:          0  iHIT:          0  iMISS:          0  dACCESS:   10084578  dHIT:    9601425  dMISS:     483153  itACCESS:          0  itHIT:          0  itMISS:          0  dtACCESS:          0  dtHIT:          0  dtMISS:          0
cpu0_L1D TRANSLATION  ACCESS:     339701  HIT:      20381  MISS:     319320  iACCESS:          0  iHIT:          0  iMISS:          0  dACCESS:          0  dHIT:          0  dMISS:          0  itACCESS:      39787  itHIT:       3097  itMISS:      36690  dtACCESS:     299914  dtHIT:      17284  dtMISS:     282630
cpu0_L1D PREFETCH  REQUESTED:   20354380  ISSUED:   18115200  CROSSED:          0  USEFUL:     343537  USELESS:     775043
cpu0_L1D AVERAGE iMISS LATENCY: 0 cycles
cpu0_L1D AVERAGE dMISS LATENCY: 41.2655 cycles
cpu0_L1D AVERAGE itMISS LATENCY: 1.01832 cycles
cpu0_L1D AVERAGE dtMISS LATENCY: 6.12132 cycles
cpu0_L1D PAGE CROSSINGS (TLB HIT):         0 
cpu0_L1D PAGE CROSSINGS (TLB MISS):         0 
cpu0_L1D AVERAGE MISS LATENCY: 48.4051 cycles
cpu0_L2C TOTAL       ACCESS:    7533557  HIT:    2566077  MISS:    4967480  iACCESS:    3388714  iHIT:    1411503  iMISS:    1977211  dACCESS:    3844376  dHIT:    1058541  dMISS:    2785835  itACCESS:      36514  itHIT:       6497  itMISS:      30017  dtACCESS:     263953  dtHIT:      89536  dtMISS:     174417
cpu0_L2C LOAD         ACCESS:    1848044  HIT:     566783  MISS:    1281261  iACCESS:     773540  iHIT:     310867  iMISS:     462673  dACCESS:    1074504  dHIT:     255916  dMISS:     818588  itACCESS:          0  itHIT:          0  itMISS:          0  dtACCESS:          0  dtHIT:          0  dtMISS:          0
cpu0_L2C RFO          ACCESS:     171582  HIT:      39694  MISS:     131888  iACCESS:          0  iHIT:          0  iMISS:          0  dACCESS:     171582  dHIT:      39694  dMISS:     131888  itACCESS:          0  itHIT:          0  itMISS:          0  dtACCESS:          0  dtHIT:          0  dtMISS:          0
cpu0_L2C PREFETCH     ACCESS:    4923844  HIT:    1688520  MISS:    3235324  iACCESS:    2615174  iHIT:    1100636  iMISS:    1514538  dACCESS:    2308670  dHIT:     587884  dMISS:    1720786  itACCESS:          0  itHIT:          0  itMISS:          0  dtACCESS:          0  dtHIT:          0  dtMISS:          0
cpu0_L2C WRITE        ACCESS:     289620  HIT:     175047  MISS:     114573  iACCESS:          0  iHIT:          0  iMISS:          0  dACCESS:     289620  dHIT:     175047  dMISS:     114573  itACCESS:          0  itHIT:          0  itMISS:          0  dtACCESS:          0  dtHIT:          0  dtMISS:          0
cpu0_L2C TRANSLATION  ACCESS:     300467  HIT:      96033  MISS:     204434  iACCESS:          0  iHIT:          0  iMISS:          0  dACCESS:          0  dHIT:          0  dMISS:          0  itACCESS:      36514  itHIT:       6497  itMISS:      30017  dtACCESS:     263953  dtHIT:      89536  dtMISS:     174417
cpu0_L2C PREFETCH  REQUESTED:    1436700  ISSUED:    1436700  CROSSED:          0  USEFUL:     357135  USELESS:     371728
cpu0_L2C AVERAGE iMISS LATENCY: 28.7957 cycles
cpu0_L2C AVERAGE dMISS LATENCY: 51.4309 cycles
cpu0_L2C AVERAGE itMISS LATENCY: 0.946897 cycles
cpu0_L2C AVERAGE dtMISS LATENCY: 5.61161 cycles
cpu0_L2C PAGE CROSSINGS (TLB HIT):         0 
cpu0_L2C PAGE CROSSINGS (TLB MISS):         0 
cpu0_L2C AVERAGE MISS LATENCY: 86.7851 cycles
LLC TOTAL       ACCESS:    4868577  HIT:    2777249  MISS:    2091328  iACCESS:    1899701  iHIT:    1192562  iMISS:     707139  dACCESS:    2764442  dHIT:    1534532  dMISS:    1229910  itACCESS:      30017  itHIT:       6394  itMISS:      23623  dtACCESS:     174417  dtHIT:      43761  dtMISS:     130656
LLC LOAD         ACCESS:    1273876  HIT:     782858  MISS:     491018  iACCESS:     461276  iHIT:     312961  iMISS:     148315  dACCESS:     812600  dHIT:     469897  dMISS:     342703  itACCESS:          0  itHIT:          0  itMISS:          0  dtACCESS:          0  dtHIT:          0  dtMISS:          0
LLC RFO          ACCESS:     131886  HIT:      64421  MISS:      67465  iACCESS:          0  iHIT:          0  iMISS:          0  dACCESS:     131886  dHIT:      64421  dMISS:      67465  itACCESS:          0  itHIT:          0  itMISS:          0  dtACCESS:          0  dtHIT:          0  dtMISS:          0
LLC PREFETCH     ACCESS:    3052878  HIT:    1678086  MISS:    1374792  iACCESS:    1438425  iHIT:     879601  iMISS:     558824  dACCESS:    1614453  dHIT:     798485  dMISS:     815968  itACCESS:          0  itHIT:          0  itMISS:          0  dtACCESS:          0  dtHIT:          0  dtMISS:          0
LLC WRITE        ACCESS:     205503  HIT:     201729  MISS:       3774  iACCESS:          0  iHIT:          0  iMISS:          0  dACCESS:     205503  dHIT:     201729  dMISS:       3774  itACCESS:          0  itHIT:          0  itMISS:          0  dtACCESS:          0  dtHIT:          0  dtMISS:          0
LLC TRANSLATION  ACCESS:     204434  HIT:      50155  MISS:     154279  iACCESS:          0  iHIT:          0  iMISS:          0  dACCESS:          0  dHIT:          0  dMISS:          0  itACCESS:      30017  itHIT:       6394  itMISS:      23623  dtACCESS:     174417  dtHIT:      43761  dtMISS:     130656
LLC PREFETCH  REQUESTED:          0  ISSUED:          0  CROSSED:          0  USEFUL:          0  USELESS:          0
LLC AVERAGE iMISS LATENCY: 50.7166 cycles
LLC AVERAGE dMISS LATENCY: 99.469 cycles
LLC AVERAGE itMISS LATENCY: 1.96612 cycles
LLC AVERAGE dtMISS LATENCY: 11.6884 cycles
LLC PAGE CROSSINGS (TLB HIT):         0 
LLC PAGE CROSSINGS (TLB MISS):         0 
LLC AVERAGE MISS LATENCY: 163.84 cycles

PageTableWalker TOTAL       ACCESS:     118275  
PageTableWalker AVERAGE LATENCY: 4.56014 cycles
PageTableWalker TOTAL LATENCY: 539350 cycles

DRAM Statistics
Channel 0
 RQ ROW_BUFFER_HIT:     581132
  ROW_BUFFER_MISS:    1489346
 AVG DBUS CONGESTED CYCLE:    3.64529
 WQ ROW_BUFFER_HIT:      45896
  ROW_BUFFER_MISS:      34600  FULL:          0

