last_page:0x200000000000000
VMEM_RES_CAP:0x100000
PAGE_SIZE:4096
LOG2_PAGE_SIZE:12
LOG2_PAGE_TABLE_SIZE:9
page_table_levels:5
WARNING: physical memory size is smaller than virtual memory size
FDiP enabled with aggresivity 16

*** ChampSim Multicore Out-of-Order Simulator ***

Warmup Instructions: 50000000
Simulation Instructions: 100000000
Number of CPUs: 1
Small page size: 4096
Large page size: 2097152

CPU 0 Bimodal branch predictor
Basic BTB sets: 1024 ways: 8 indirect buffer size: 4096 RAS size: 64
Instruction page size distrubution: 0
Loading instruction page size distribution from /home/bsc/bsc018186/scratch/itp_asplos25_AE/dump/srv293_ap.pdst
Data page size distrubution: 0
Loading data page size distribution from /home/bsc/bsc018186/scratch/itp_asplos25_AE/dump/srv293_ap.pdst
cpu0_L2C IP-based stride prefetcher
cpu0_L1D next line prefetcher
CHiRPing...
cpu0_L1I next line prefetcher
Off-chip DRAM Size: 4 GiB Channels: 1 Width: 64-bit Data Rate: 3200 MT/s
Heartbeat CPU 0 instructions: 10000001 cycles: 2500276 heartbeat IPC: 3.99956 cumulative IPC: 3.99956 (Simulation time: 0 hr 0 min 39 sec) 
Heartbeat CPU 0 instructions: 20000001 cycles: 5000364 heartbeat IPC: 3.99986 cumulative IPC: 3.99971 (Simulation time: 0 hr 1 min 20 sec) 
Heartbeat CPU 0 instructions: 30000003 cycles: 7500374 heartbeat IPC: 3.99999 cumulative IPC: 3.99981 (Simulation time: 0 hr 2 min 2 sec) 
Heartbeat CPU 0 instructions: 40000002 cycles: 10000423 heartbeat IPC: 3.99993 cumulative IPC: 3.99984 (Simulation time: 0 hr 2 min 43 sec) 
Heartbeat CPU 0 instructions: 50000003 cycles: 12500426 heartbeat IPC: 4 cumulative IPC: 3.99987 (Simulation time: 0 hr 3 min 25 sec) 
Warmup finished CPU 0 instructions: 50000003 cycles: 12500427 cumulative IPC: 3.99987 (Simulation time: 0 hr 3 min 25 sec) 

Warmup complete CPU 0 instructions: 50000003 cycles: 12500427 (Simulation time: 0 hr 3 min 25 sec) 

Heartbeat CPU 0 instructions: 60000001 cycles: 26302389 heartbeat IPC: 0.724535 cumulative IPC: 0.724535 (Simulation time: 0 hr 4 min 29 sec) 
Heartbeat CPU 0 instructions: 70000000 cycles: 41211690 heartbeat IPC: 0.670723 cumulative IPC: 0.696591 (Simulation time: 0 hr 5 min 34 sec) 
Heartbeat CPU 0 instructions: 80000002 cycles: 55038046 heartbeat IPC: 0.723257 cumulative IPC: 0.705259 (Simulation time: 0 hr 6 min 38 sec) 
Heartbeat CPU 0 instructions: 90000004 cycles: 68980321 heartbeat IPC: 0.717244 cumulative IPC: 0.708217 (Simulation time: 0 hr 7 min 43 sec) 
Heartbeat CPU 0 instructions: 100000000 cycles: 82946897 heartbeat IPC: 0.715995 cumulative IPC: 0.709759 (Simulation time: 0 hr 8 min 49 sec) 
*** Reached end of trace: /gpfs/projects/bsc18/MN4/bsc18/romol/ChampSim/traces/qualcomm_srv/srv293_ap.champsimtrace.xz
Heartbeat CPU 0 instructions: 110000004 cycles: 96442651 heartbeat IPC: 0.740975 cumulative IPC: 0.714778 (Simulation time: 0 hr 9 min 53 sec) 
Heartbeat CPU 0 instructions: 120000004 cycles: 110157315 heartbeat IPC: 0.729147 cumulative IPC: 0.716796 (Simulation time: 0 hr 10 min 57 sec) 
Heartbeat CPU 0 instructions: 130000001 cycles: 123435933 heartbeat IPC: 0.753091 cumulative IPC: 0.72114 (Simulation time: 0 hr 12 min 0 sec) 
Heartbeat CPU 0 instructions: 140000002 cycles: 137557640 heartbeat IPC: 0.70813 cumulative IPC: 0.719671 (Simulation time: 0 hr 13 min 5 sec) 
Heartbeat CPU 0 instructions: 150000000 cycles: 151388431 heartbeat IPC: 0.723025 cumulative IPC: 0.720005 (Simulation time: 0 hr 14 min 9 sec) 
Simulation finished CPU 0 instructions: 100000002 cycles: 138888006 cumulative IPC: 0.720005 (Simulation time: 0 hr 14 min 9 sec) 

Simulation complete CPU 0 instructions: 100000002 cycles: 138888006 (Simulation time: 0 hr 14 min 9 sec) 


ChampSim completed all CPUs

Saving instructions large page distribution to /home/bsc/bsc018186/scratch/itp_asplos25_AE/dump/srv293_ap.pdst...
Saving data large page distribution to /home/bsc/bsc018186/scratch/itp_asplos25_AE/dump/srv293_ap.pdst...
=== Simulation ===
CPU 0 runs /gpfs/projects/bsc18/MN4/bsc18/romol/ChampSim/traces/qualcomm_srv/srv293_ap.champsimtrace.xz

Region of Interest Statistics

CPU 0 cumulative IPC: 0.720005 instructions: 100000002 cycles: 138888006
CPU 0 Branch Prediction Accuracy: 83.4793% MPKI: 29.5378 Average ROB Occupancy at Mispredict: 12.4964
Branch type MPKI
BRANCH_DIRECT_JUMP: 1.01596
BRANCH_INDIRECT: 15.2507
BRANCH_CONDITIONAL: 9.60774
BRANCH_DIRECT_CALL: 1.83251
BRANCH_INDIRECT_CALL: 0.50275
BRANCH_RETURN: 1.32809

Instructions large pages: 0
Instructions small pages: 1052
Large page distribution for instructions: 0%

Data large pages: 0
Data small pages: 10204
Large page distribution for data: 0%

cpu0_L1I TOTAL       ACCESS:   35174833  HIT:   26891894  MISS:    8282939  iACCESS:   35174833  iHIT:   26891894  iMISS:    8282939  dACCESS:          0  dHIT:          0  dMISS:          0  itACCESS:          0  itHIT:          0  itMISS:          0  dtACCESS:          0  dtHIT:          0  dtMISS:          0
cpu0_L1I LOAD         ACCESS:   10331854  HIT:    8010273  MISS:    2321581  iACCESS:   10331854  iHIT:    8010273  iMISS:    2321581  dACCESS:          0  dHIT:          0  dMISS:          0  itACCESS:          0  itHIT:          0  itMISS:          0  dtACCESS:          0  dtHIT:          0  dtMISS:          0
cpu0_L1I RFO          ACCESS:          0  HIT:          0  MISS:          0  iACCESS:          0  iHIT:          0  iMISS:          0  dACCESS:          0  dHIT:          0  dMISS:          0  itACCESS:          0  itHIT:          0  itMISS:          0  dtACCESS:          0  dtHIT:          0  dtMISS:          0
cpu0_L1I PREFETCH     ACCESS:   24842979  HIT:   18881621  MISS:    5961358  iACCESS:   24842979  iHIT:   18881621  iMISS:    5961358  dACCESS:          0  dHIT:          0  dMISS:          0  itACCESS:          0  itHIT:          0  itMISS:          0  dtACCESS:          0  dtHIT:          0  dtMISS:          0
cpu0_L1I WRITE        ACCESS:          0  HIT:          0  MISS:          0  iACCESS:          0  iHIT:          0  iMISS:          0  dACCESS:          0  dHIT:          0  dMISS:          0  itACCESS:          0  itHIT:          0  itMISS:          0  dtACCESS:          0  dtHIT:          0  dtMISS:          0
cpu0_L1I TRANSLATION  ACCESS:          0  HIT:          0  MISS:          0  iACCESS:          0  iHIT:          0  iMISS:          0  dACCESS:          0  dHIT:          0  dMISS:          0  itACCESS:          0  itHIT:          0  itMISS:          0  dtACCESS:          0  dtHIT:          0  dtMISS:          0
cpu0_L1I PREFETCH  REQUESTED:   27217867  ISSUED:   27216105  CROSSED:          0  USEFUL:    1892411  USELESS:     623206
cpu0_L1I AVERAGE iMISS LATENCY: 13.2668 cycles
cpu0_L1I AVERAGE dMISS LATENCY: 0 cycles
cpu0_L1I AVERAGE itMISS LATENCY: 0 cycles
cpu0_L1I AVERAGE dtMISS LATENCY: 0 cycles
cpu0_L1I PAGE CROSSINGS (TLB HIT):         0 
cpu0_L1I PAGE CROSSINGS (TLB MISS):         0 
cpu0_L1I AVERAGE MISS LATENCY: 13.2668 cycles
cpu0_ITLB TOTAL       ACCESS:   29101988  HIT:   27140412  MISS:    1961576  iACCESS:   29101988  iHIT:   27140412  iMISS:    1961576  dACCESS:          0  dHIT:          0  dMISS:          0  itACCESS:          0  itHIT:          0  itMISS:          0  dtACCESS:          0  dtHIT:          0  dtMISS:          0
cpu0_ITLB LOAD         ACCESS:   29101988  HIT:   27140412  MISS:    1961576  iACCESS:   29101988  iHIT:   27140412  iMISS:    1961576  dACCESS:          0  dHIT:          0  dMISS:          0  itACCESS:          0  itHIT:          0  itMISS:          0  dtACCESS:          0  dtHIT:          0  dtMISS:          0
cpu0_ITLB RFO          ACCESS:          0  HIT:          0  MISS:          0  iACCESS:          0  iHIT:          0  iMISS:          0  dACCESS:          0  dHIT:          0  dMISS:          0  itACCESS:          0  itHIT:          0  itMISS:          0  dtACCESS:          0  dtHIT:          0  dtMISS:          0
cpu0_ITLB PREFETCH     ACCESS:          0  HIT:          0  MISS:          0  iACCESS:          0  iHIT:          0  iMISS:          0  dACCESS:          0  dHIT:          0  dMISS:          0  itACCESS:          0  itHIT:          0  itMISS:          0  dtACCESS:          0  dtHIT:          0  dtMISS:          0
cpu0_ITLB WRITE        ACCESS:          0  HIT:          0  MISS:          0  iACCESS:          0  iHIT:          0  iMISS:          0  dACCESS:          0  dHIT:          0  dMISS:          0  itACCESS:          0  itHIT:          0  itMISS:          0  dtACCESS:          0  dtHIT:          0  dtMISS:          0
cpu0_ITLB TRANSLATION  ACCESS:          0  HIT:          0  MISS:          0  iACCESS:          0  iHIT:          0  iMISS:          0  dACCESS:          0  dHIT:          0  dMISS:          0  itACCESS:          0  itHIT:          0  itMISS:          0  dtACCESS:          0  dtHIT:          0  dtMISS:          0
cpu0_ITLB PREFETCH  REQUESTED:          0  ISSUED:          0  CROSSED:          0  USEFUL:     320489  USELESS:      65700
cpu0_ITLB AVERAGE iMISS LATENCY: 3.14688 cycles
cpu0_ITLB AVERAGE dMISS LATENCY: 0 cycles
cpu0_ITLB AVERAGE itMISS LATENCY: 0 cycles
cpu0_ITLB AVERAGE dtMISS LATENCY: 0 cycles
cpu0_ITLB PAGE CROSSINGS (TLB HIT):         0 
cpu0_ITLB PAGE CROSSINGS (TLB MISS):         0 
cpu0_ITLB AVERAGE MISS LATENCY: 3.14688 cycles
cpu0_DTLB TOTAL       ACCESS:   27676845  HIT:   25650922  MISS:    2025923  iACCESS:          0  iHIT:          0  iMISS:          0  dACCESS:   27676845  dHIT:   25650922  dMISS:    2025923  itACCESS:          0  itHIT:          0  itMISS:          0  dtACCESS:          0  dtHIT:          0  dtMISS:          0
cpu0_DTLB LOAD         ACCESS:   27676845  HIT:   25650922  MISS:    2025923  iACCESS:          0  iHIT:          0  iMISS:          0  dACCESS:   27676845  dHIT:   25650922  dMISS:    2025923  itACCESS:          0  itHIT:          0  itMISS:          0  dtACCESS:          0  dtHIT:          0  dtMISS:          0
cpu0_DTLB RFO          ACCESS:          0  HIT:          0  MISS:          0  iACCESS:          0  iHIT:          0  iMISS:          0  dACCESS:          0  dHIT:          0  dMISS:          0  itACCESS:          0  itHIT:          0  itMISS:          0  dtACCESS:          0  dtHIT:          0  dtMISS:          0
cpu0_DTLB PREFETCH     ACCESS:          0  HIT:          0  MISS:          0  iACCESS:          0  iHIT:          0  iMISS:          0  dACCESS:          0  dHIT:          0  dMISS:          0  itACCESS:          0  itHIT:          0  itMISS:          0  dtACCESS:          0  dtHIT:          0  dtMISS:          0
cpu0_DTLB WRITE        ACCESS:          0  HIT:          0  MISS:          0  iACCESS:          0  iHIT:          0  iMISS:          0  dACCESS:          0  dHIT:          0  dMISS:          0  itACCESS:          0  itHIT:          0  itMISS:          0  dtACCESS:          0  dtHIT:          0  dtMISS:          0
cpu0_DTLB TRANSLATION  ACCESS:          0  HIT:          0  MISS:          0  iACCESS:          0  iHIT:          0  iMISS:          0  dACCESS:          0  dHIT:          0  dMISS:          0  itACCESS:          0  itHIT:          0  itMISS:          0  dtACCESS:          0  dtHIT:          0  dtMISS:          0
cpu0_DTLB PREFETCH  REQUESTED:          0  ISSUED:          0  CROSSED:          0  USEFUL:          0  USELESS:          0
cpu0_DTLB AVERAGE iMISS LATENCY: 0 cycles
cpu0_DTLB AVERAGE dMISS LATENCY: 10.1731 cycles
cpu0_DTLB AVERAGE itMISS LATENCY: 0 cycles
cpu0_DTLB AVERAGE dtMISS LATENCY: 0 cycles
cpu0_DTLB PAGE CROSSINGS (TLB HIT):         0 
cpu0_DTLB PAGE CROSSINGS (TLB MISS):         0 
cpu0_DTLB AVERAGE MISS LATENCY: 10.1731 cycles
cpu0_STLB TOTAL       ACCESS:    1625359  HIT:    1449241  MISS:     176118  iACCESS:     386240  iHIT:     322564  iMISS:      63676  dACCESS:    1239119  dHIT:    1126677  dMISS:     112442  itACCESS:          0  itHIT:          0  itMISS:          0  dtACCESS:          0  dtHIT:          0  dtMISS:          0
cpu0_STLB LOAD         ACCESS:    1625359  HIT:    1449241  MISS:     176118  iACCESS:     386240  iHIT:     322564  iMISS:      63676  dACCESS:    1239119  dHIT:    1126677  dMISS:     112442  itACCESS:          0  itHIT:          0  itMISS:          0  dtACCESS:          0  dtHIT:          0  dtMISS:          0
cpu0_STLB RFO          ACCESS:          0  HIT:          0  MISS:          0  iACCESS:          0  iHIT:          0  iMISS:          0  dACCESS:          0  dHIT:          0  dMISS:          0  itACCESS:          0  itHIT:          0  itMISS:          0  dtACCESS:          0  dtHIT:          0  dtMISS:          0
cpu0_STLB PREFETCH     ACCESS:          0  HIT:          0  MISS:          0  iACCESS:          0  iHIT:          0  iMISS:          0  dACCESS:          0  dHIT:          0  dMISS:          0  itACCESS:          0  itHIT:          0  itMISS:          0  dtACCESS:          0  dtHIT:          0  dtMISS:          0
cpu0_STLB WRITE        ACCESS:          0  HIT:          0  MISS:          0  iACCESS:          0  iHIT:          0  iMISS:          0  dACCESS:          0  dHIT:          0  dMISS:          0  itACCESS:          0  itHIT:          0  itMISS:          0  dtACCESS:          0  dtHIT:          0  dtMISS:          0
cpu0_STLB TRANSLATION  ACCESS:          0  HIT:          0  MISS:          0  iACCESS:          0  iHIT:          0  iMISS:          0  dACCESS:          0  dHIT:          0  dMISS:          0  itACCESS:          0  itHIT:          0  itMISS:          0  dtACCESS:          0  dtHIT:          0  dtMISS:          0
cpu0_STLB PREFETCH  REQUESTED:          0  ISSUED:          0  CROSSED:          0  USEFUL:          0  USELESS:          0
cpu0_STLB AVERAGE iMISS LATENCY: 17.6969 cycles
cpu0_STLB AVERAGE dMISS LATENCY: 60.9574 cycles
cpu0_STLB AVERAGE itMISS LATENCY: 0 cycles
cpu0_STLB AVERAGE dtMISS LATENCY: 0 cycles
cpu0_STLB PAGE CROSSINGS (TLB HIT):         0 
cpu0_STLB PAGE CROSSINGS (TLB MISS):         0 
cpu0_STLB AVERAGE MISS LATENCY: 78.6542 cycles
cpu0_L1D TOTAL       ACCESS:   41373543  HIT:   37930791  MISS:    3442752  iACCESS:          0  iHIT:          0  iMISS:          0  dACCESS:   41134621  dHIT:   37908935  dMISS:    3225686  itACCESS:      69357  itHIT:       9931  itMISS:      59426  dtACCESS:     169565  dtHIT:      11925  dtMISS:     157640
cpu0_L1D LOAD         ACCESS:   18872025  HIT:   17399925  MISS:    1472100  iACCESS:          0  iHIT:          0  iMISS:          0  dACCESS:   18872025  dHIT:   17399925  dMISS:    1472100  itACCESS:          0  itHIT:          0  itMISS:          0  dtACCESS:          0  dtHIT:          0  dtMISS:          0
cpu0_L1D RFO          ACCESS:          0  HIT:          0  MISS:          0  iACCESS:          0  iHIT:          0  iMISS:          0  dACCESS:          0  dHIT:          0  dMISS:          0  itACCESS:          0  itHIT:          0  itMISS:          0  dtACCESS:          0  dtHIT:          0  dtMISS:          0
cpu0_L1D PREFETCH     ACCESS:   12093555  HIT:   10760903  MISS:    1332652  iACCESS:          0  iHIT:          0  iMISS:          0  dACCESS:   12093555  dHIT:   10760903  dMISS:    1332652  itACCESS:          0  itHIT:          0  itMISS:          0  dtACCESS:          0  dtHIT:          0  dtMISS:          0
cpu0_L1D WRITE        ACCESS:   10169041  HIT:    9748107  MISS:     420934  iACCESS:          0  iHIT:          0  iMISS:          0  dACCESS:   10169041  dHIT:    9748107  dMISS:     420934  itACCESS:          0  itHIT:          0  itMISS:          0  dtACCESS:          0  dtHIT:          0  dtMISS:          0
cpu0_L1D TRANSLATION  ACCESS:     238922  HIT:      21856  MISS:     217066  iACCESS:          0  iHIT:          0  iMISS:          0  dACCESS:          0  dHIT:          0  dMISS:          0  itACCESS:      69357  itHIT:       9931  itMISS:      59426  dtACCESS:     169565  dtHIT:      11925  dtMISS:     157640
cpu0_L1D PREFETCH  REQUESTED:   18872025  ISSUED:   16900600  CROSSED:          0  USEFUL:     306189  USELESS:     698452
cpu0_L1D AVERAGE iMISS LATENCY: 0 cycles
cpu0_L1D AVERAGE dMISS LATENCY: 32.7521 cycles
cpu0_L1D AVERAGE itMISS LATENCY: 0.744306 cycles
cpu0_L1D AVERAGE dtMISS LATENCY: 2.37331 cycles
cpu0_L1D PAGE CROSSINGS (TLB HIT):         0 
cpu0_L1D PAGE CROSSINGS (TLB MISS):         0 
cpu0_L1D AVERAGE MISS LATENCY: 35.8697 cycles
cpu0_L2C TOTAL       ACCESS:    6918277  HIT:    1648647  MISS:    5269630  iACCESS:    3263937  iHIT:     824046  iMISS:    2439891  dACCESS:    3445546  dHIT:     702394  dMISS:    2743152  itACCESS:      59426  itHIT:      42621  itMISS:      16805  dtACCESS:     149368  dtHIT:      79586  dtMISS:      69782
cpu0_L2C LOAD         ACCESS:    1708205  HIT:     286505  MISS:    1421700  iACCESS:     781357  iHIT:     134500  iMISS:     646857  dACCESS:     926848  dHIT:     152005  dMISS:     774843  itACCESS:          0  itHIT:          0  itMISS:          0  dtACCESS:          0  dtHIT:          0  dtMISS:          0
cpu0_L2C RFO          ACCESS:     156858  HIT:      54966  MISS:     101892  iACCESS:          0  iHIT:          0  iMISS:          0  dACCESS:     156858  dHIT:      54966  dMISS:     101892  itACCESS:          0  itHIT:          0  itMISS:          0  dtACCESS:          0  dtHIT:          0  dtMISS:          0
cpu0_L2C PREFETCH     ACCESS:    4559918  HIT:    1045381  MISS:    3514537  iACCESS:    2482580  iHIT:     689546  iMISS:    1793034  dACCESS:    2077338  dHIT:     355835  dMISS:    1721503  itACCESS:          0  itHIT:          0  itMISS:          0  dtACCESS:          0  dtHIT:          0  dtMISS:          0
cpu0_L2C WRITE        ACCESS:     284502  HIT:     139588  MISS:     144914  iACCESS:          0  iHIT:          0  iMISS:          0  dACCESS:     284502  dHIT:     139588  dMISS:     144914  itACCESS:          0  itHIT:          0  itMISS:          0  dtACCESS:          0  dtHIT:          0  dtMISS:          0
cpu0_L2C TRANSLATION  ACCESS:     208794  HIT:     122207  MISS:      86587  iACCESS:          0  iHIT:          0  iMISS:          0  dACCESS:          0  dHIT:          0  dMISS:          0  itACCESS:      59426  itHIT:      42621  itMISS:      16805  dtACCESS:     149368  dtHIT:      79586  dtMISS:      69782
cpu0_L2C PREFETCH  REQUESTED:    1323856  ISSUED:    1323856  CROSSED:          0  USEFUL:     393098  USELESS:     365348
cpu0_L2C AVERAGE iMISS LATENCY: 15.1796 cycles
cpu0_L2C AVERAGE dMISS LATENCY: 24.3215 cycles
cpu0_L2C AVERAGE itMISS LATENCY: 0.381333 cycles
cpu0_L2C AVERAGE dtMISS LATENCY: 1.28058 cycles
cpu0_L2C PAGE CROSSINGS (TLB HIT):         0 
cpu0_L2C PAGE CROSSINGS (TLB MISS):         0 
cpu0_L2C AVERAGE MISS LATENCY: 41.163 cycles
LLC TOTAL       ACCESS:    5160913  HIT:    4390018  MISS:     770895  iACCESS:    2392002  iHIT:    2159947  iMISS:     232055  dACCESS:    2682324  dHIT:    2184162  dMISS:     498162  itACCESS:      16805  itHIT:       6964  itMISS:       9841  dtACCESS:      69782  dtHIT:      38945  dtMISS:      30837
LLC LOAD         ACCESS:    1419874  HIT:    1247206  MISS:     172668  iACCESS:     645441  iHIT:     596364  iMISS:      49077  dACCESS:     774433  dHIT:     650842  dMISS:     123591  itACCESS:          0  itHIT:          0  itMISS:          0  dtACCESS:          0  dtHIT:          0  dtMISS:          0
LLC RFO          ACCESS:     101891  HIT:      70331  MISS:      31560  iACCESS:          0  iHIT:          0  iMISS:          0  dACCESS:     101891  dHIT:      70331  dMISS:      31560  itACCESS:          0  itHIT:          0  itMISS:          0  dtACCESS:          0  dtHIT:          0  dtMISS:          0
LLC PREFETCH     ACCESS:    3418031  HIT:    2900509  MISS:     517522  iACCESS:    1746561  iHIT:    1563583  iMISS:     182978  dACCESS:    1671470  dHIT:    1336926  dMISS:     334544  itACCESS:          0  itHIT:          0  itMISS:          0  dtACCESS:          0  dtHIT:          0  dtMISS:          0
LLC WRITE        ACCESS:     134530  HIT:     126063  MISS:       8467  iACCESS:          0  iHIT:          0  iMISS:          0  dACCESS:     134530  dHIT:     126063  dMISS:       8467  itACCESS:          0  itHIT:          0  itMISS:          0  dtACCESS:          0  dtHIT:          0  dtMISS:          0
LLC TRANSLATION  ACCESS:      86587  HIT:      45909  MISS:      40678  iACCESS:          0  iHIT:          0  iMISS:          0  dACCESS:          0  dHIT:          0  dMISS:          0  itACCESS:      16805  itHIT:       6964  itMISS:       9841  dtACCESS:      69782  dtHIT:      38945  dtMISS:      30837
LLC PREFETCH  REQUESTED:          0  ISSUED:          0  CROSSED:          0  USEFUL:          0  USELESS:          0
LLC AVERAGE iMISS LATENCY: 43.8897 cycles
LLC AVERAGE dMISS LATENCY: 102.47 cycles
LLC AVERAGE itMISS LATENCY: 2.18031 cycles
LLC AVERAGE dtMISS LATENCY: 6.99403 cycles
LLC PAGE CROSSINGS (TLB HIT):         0 
LLC PAGE CROSSINGS (TLB MISS):         0 
LLC AVERAGE MISS LATENCY: 155.534 cycles

PageTableWalker TOTAL       ACCESS:      87921  
PageTableWalker AVERAGE LATENCY: 4.61451 cycles
PageTableWalker TOTAL LATENCY: 405712 cycles

DRAM Statistics
Channel 0
 RQ ROW_BUFFER_HIT:     211485
  ROW_BUFFER_MISS:     550882
 AVG DBUS CONGESTED CYCLE:    3.62249
 WQ ROW_BUFFER_HIT:      15246
  ROW_BUFFER_MISS:      21253  FULL:          0

