last_page:0x200000000000000
VMEM_RES_CAP:0x100000
PAGE_SIZE:4096
LOG2_PAGE_SIZE:12
LOG2_PAGE_TABLE_SIZE:9
page_table_levels:5
WARNING: physical memory size is smaller than virtual memory size
FDiP enabled with aggresivity 16

*** ChampSim Multicore Out-of-Order Simulator ***

Warmup Instructions: 50000000
Simulation Instructions: 100000000
Number of CPUs: 1
Small page size: 4096
Large page size: 2097152

CPU 0 Bimodal branch predictor
Basic BTB sets: 1024 ways: 8 indirect buffer size: 4096 RAS size: 64
Instruction page size distrubution: 0
Loading instruction page size distribution from /home/bsc/bsc018186/scratch/itp_asplos25_AE/dump/srv228_ap.pdst
Data page size distrubution: 0
Loading data page size distribution from /home/bsc/bsc018186/scratch/itp_asplos25_AE/dump/srv228_ap.pdst
cpu0_L2C IP-based stride prefetcher
cpu0_L1D next line prefetcher
cpu0_STLB using iTP with max lru@8
cpu0_STLB using iTP with instr@0 and data@2
Init sat counter with 3 bits (max:50).
cpu0_L1I next line prefetcher
Off-chip DRAM Size: 4 GiB Channels: 1 Width: 64-bit Data Rate: 3200 MT/s
Heartbeat CPU 0 instructions: 10000003 cycles: 2500199 heartbeat IPC: 3.99969 cumulative IPC: 3.99969 (Simulation time: 0 hr 0 min 37 sec) 
Heartbeat CPU 0 instructions: 20000002 cycles: 5000223 heartbeat IPC: 3.99997 cumulative IPC: 3.99983 (Simulation time: 0 hr 1 min 17 sec) 
Heartbeat CPU 0 instructions: 30000002 cycles: 7500243 heartbeat IPC: 3.99997 cumulative IPC: 3.99988 (Simulation time: 0 hr 1 min 56 sec) 
Heartbeat CPU 0 instructions: 40000003 cycles: 10000245 heartbeat IPC: 4 cumulative IPC: 3.99991 (Simulation time: 0 hr 2 min 37 sec) 
Heartbeat CPU 0 instructions: 50000003 cycles: 12500245 heartbeat IPC: 4 cumulative IPC: 3.99993 (Simulation time: 0 hr 3 min 17 sec) 
Warmup finished CPU 0 instructions: 50000003 cycles: 12500246 cumulative IPC: 3.99993 (Simulation time: 0 hr 3 min 17 sec) 

Warmup complete CPU 0 instructions: 50000003 cycles: 12500246 (Simulation time: 0 hr 3 min 17 sec) 

Heartbeat CPU 0 instructions: 60000000 cycles: 27402854 heartbeat IPC: 0.671024 cumulative IPC: 0.671024 (Simulation time: 0 hr 4 min 22 sec) 
Heartbeat CPU 0 instructions: 70000001 cycles: 41959810 heartbeat IPC: 0.686957 cumulative IPC: 0.678897 (Simulation time: 0 hr 5 min 26 sec) 
Heartbeat CPU 0 instructions: 80000002 cycles: 56127813 heartbeat IPC: 0.705816 cumulative IPC: 0.687639 (Simulation time: 0 hr 6 min 30 sec) 
Heartbeat CPU 0 instructions: 90000004 cycles: 70441053 heartbeat IPC: 0.698654 cumulative IPC: 0.69036 (Simulation time: 0 hr 7 min 34 sec) 
Heartbeat CPU 0 instructions: 100000001 cycles: 84821302 heartbeat IPC: 0.695399 cumulative IPC: 0.691362 (Simulation time: 0 hr 8 min 38 sec) 
*** Reached end of trace: /gpfs/projects/bsc18/MN4/bsc18/romol/ChampSim/traces/qualcomm_srv/srv228_ap.champsimtrace.xz
Heartbeat CPU 0 instructions: 110000000 cycles: 99623734 heartbeat IPC: 0.675565 cumulative IPC: 0.688678 (Simulation time: 0 hr 9 min 43 sec) 
Heartbeat CPU 0 instructions: 120000000 cycles: 114154094 heartbeat IPC: 0.688215 cumulative IPC: 0.688612 (Simulation time: 0 hr 10 min 47 sec) 
Heartbeat CPU 0 instructions: 130000004 cycles: 127851511 heartbeat IPC: 0.730065 cumulative IPC: 0.693534 (Simulation time: 0 hr 11 min 50 sec) 
Heartbeat CPU 0 instructions: 140000002 cycles: 142626075 heartbeat IPC: 0.676839 cumulative IPC: 0.691639 (Simulation time: 0 hr 12 min 55 sec) 
Heartbeat CPU 0 instructions: 150000000 cycles: 156549163 heartbeat IPC: 0.718232 cumulative IPC: 0.694209 (Simulation time: 0 hr 13 min 58 sec) 
Simulation finished CPU 0 instructions: 100000000 cycles: 144048920 cumulative IPC: 0.694209 (Simulation time: 0 hr 13 min 58 sec) 

Simulation complete CPU 0 instructions: 100000000 cycles: 144048920 (Simulation time: 0 hr 13 min 58 sec) 


ChampSim completed all CPUs

Saving instructions large page distribution to /home/bsc/bsc018186/scratch/itp_asplos25_AE/dump/srv228_ap.pdst...
Saving data large page distribution to /home/bsc/bsc018186/scratch/itp_asplos25_AE/dump/srv228_ap.pdst...
=== Simulation ===
CPU 0 runs /gpfs/projects/bsc18/MN4/bsc18/romol/ChampSim/traces/qualcomm_srv/srv228_ap.champsimtrace.xz

Region of Interest Statistics

CPU 0 cumulative IPC: 0.694209 instructions: 100000000 cycles: 144048920
CPU 0 Branch Prediction Accuracy: 82.6742% MPKI: 30.9851 Average ROB Occupancy at Mispredict: 12.148
Branch type MPKI
BRANCH_DIRECT_JUMP: 1.06742
BRANCH_INDIRECT: 15.7828
BRANCH_CONDITIONAL: 10.2852
BRANCH_DIRECT_CALL: 1.93596
BRANCH_INDIRECT_CALL: 0.525361
BRANCH_RETURN: 1.3884

Instructions large pages: 0
Instructions small pages: 10544
Large page distribution for instructions: 0%

Data large pages: 0
Data small pages: 9583
Large page distribution for data: 0%

cpu0_L1I TOTAL       ACCESS:   35537282  HIT:   27123648  MISS:    8413634  iACCESS:   35537282  iHIT:   27123648  iMISS:    8413634  dACCESS:          0  dHIT:          0  dMISS:          0  itACCESS:          0  itHIT:          0  itMISS:          0  dtACCESS:          0  dtHIT:          0  dtMISS:          0
cpu0_L1I LOAD         ACCESS:   10410803  HIT:    8060718  MISS:    2350085  iACCESS:   10410803  iHIT:    8060718  iMISS:    2350085  dACCESS:          0  dHIT:          0  dMISS:          0  itACCESS:          0  itHIT:          0  itMISS:          0  dtACCESS:          0  dtHIT:          0  dtMISS:          0
cpu0_L1I RFO          ACCESS:          0  HIT:          0  MISS:          0  iACCESS:          0  iHIT:          0  iMISS:          0  dACCESS:          0  dHIT:          0  dMISS:          0  itACCESS:          0  itHIT:          0  itMISS:          0  dtACCESS:          0  dtHIT:          0  dtMISS:          0
cpu0_L1I PREFETCH     ACCESS:   25126479  HIT:   19062930  MISS:    6063549  iACCESS:   25126479  iHIT:   19062930  iMISS:    6063549  dACCESS:          0  dHIT:          0  dMISS:          0  itACCESS:          0  itHIT:          0  itMISS:          0  dtACCESS:          0  dtHIT:          0  dtMISS:          0
cpu0_L1I WRITE        ACCESS:          0  HIT:          0  MISS:          0  iACCESS:          0  iHIT:          0  iMISS:          0  dACCESS:          0  dHIT:          0  dMISS:          0  itACCESS:          0  itHIT:          0  itMISS:          0  dtACCESS:          0  dtHIT:          0  dtMISS:          0
cpu0_L1I TRANSLATION  ACCESS:          0  HIT:          0  MISS:          0  iACCESS:          0  iHIT:          0  iMISS:          0  dACCESS:          0  dHIT:          0  dMISS:          0  itACCESS:          0  itHIT:          0  itMISS:          0  dtACCESS:          0  dtHIT:          0  dtMISS:          0
cpu0_L1I PREFETCH  REQUESTED:   27439929  ISSUED:   27438557  CROSSED:          0  USEFUL:    1955260  USELESS:     630764
cpu0_L1I AVERAGE iMISS LATENCY: 13.4849 cycles
cpu0_L1I AVERAGE dMISS LATENCY: 0 cycles
cpu0_L1I AVERAGE itMISS LATENCY: 0 cycles
cpu0_L1I AVERAGE dtMISS LATENCY: 0 cycles
cpu0_L1I PAGE CROSSINGS (TLB HIT):         0 
cpu0_L1I PAGE CROSSINGS (TLB MISS):         0 
cpu0_L1I AVERAGE MISS LATENCY: 13.4849 cycles
cpu0_ITLB TOTAL       ACCESS:   29436387  HIT:   27505994  MISS:    1930393  iACCESS:   29436387  iHIT:   27505994  iMISS:    1930393  dACCESS:          0  dHIT:          0  dMISS:          0  itACCESS:          0  itHIT:          0  itMISS:          0  dtACCESS:          0  dtHIT:          0  dtMISS:          0
cpu0_ITLB LOAD         ACCESS:   29436387  HIT:   27505994  MISS:    1930393  iACCESS:   29436387  iHIT:   27505994  iMISS:    1930393  dACCESS:          0  dHIT:          0  dMISS:          0  itACCESS:          0  itHIT:          0  itMISS:          0  dtACCESS:          0  dtHIT:          0  dtMISS:          0
cpu0_ITLB RFO          ACCESS:          0  HIT:          0  MISS:          0  iACCESS:          0  iHIT:          0  iMISS:          0  dACCESS:          0  dHIT:          0  dMISS:          0  itACCESS:          0  itHIT:          0  itMISS:          0  dtACCESS:          0  dtHIT:          0  dtMISS:          0
cpu0_ITLB PREFETCH     ACCESS:          0  HIT:          0  MISS:          0  iACCESS:          0  iHIT:          0  iMISS:          0  dACCESS:          0  dHIT:          0  dMISS:          0  itACCESS:          0  itHIT:          0  itMISS:          0  dtACCESS:          0  dtHIT:          0  dtMISS:          0
cpu0_ITLB WRITE        ACCESS:          0  HIT:          0  MISS:          0  iACCESS:          0  iHIT:          0  iMISS:          0  dACCESS:          0  dHIT:          0  dMISS:          0  itACCESS:          0  itHIT:          0  itMISS:          0  dtACCESS:          0  dtHIT:          0  dtMISS:          0
cpu0_ITLB TRANSLATION  ACCESS:          0  HIT:          0  MISS:          0  iACCESS:          0  iHIT:          0  iMISS:          0  dACCESS:          0  dHIT:          0  dMISS:          0  itACCESS:          0  itHIT:          0  itMISS:          0  dtACCESS:          0  dtHIT:          0  dtMISS:          0
cpu0_ITLB PREFETCH  REQUESTED:          0  ISSUED:          0  CROSSED:          0  USEFUL:     319149  USELESS:      63401
cpu0_ITLB AVERAGE iMISS LATENCY: 1.99509 cycles
cpu0_ITLB AVERAGE dMISS LATENCY: 0 cycles
cpu0_ITLB AVERAGE itMISS LATENCY: 0 cycles
cpu0_ITLB AVERAGE dtMISS LATENCY: 0 cycles
cpu0_ITLB PAGE CROSSINGS (TLB HIT):         0 
cpu0_ITLB PAGE CROSSINGS (TLB MISS):         0 
cpu0_ITLB AVERAGE MISS LATENCY: 1.99509 cycles
cpu0_DTLB TOTAL       ACCESS:   27763936  HIT:   25658174  MISS:    2105762  iACCESS:          0  iHIT:          0  iMISS:          0  dACCESS:   27763936  dHIT:   25658174  dMISS:    2105762  itACCESS:          0  itHIT:          0  itMISS:          0  dtACCESS:          0  dtHIT:          0  dtMISS:          0
cpu0_DTLB LOAD         ACCESS:   27763936  HIT:   25658174  MISS:    2105762  iACCESS:          0  iHIT:          0  iMISS:          0  dACCESS:   27763936  dHIT:   25658174  dMISS:    2105762  itACCESS:          0  itHIT:          0  itMISS:          0  dtACCESS:          0  dtHIT:          0  dtMISS:          0
cpu0_DTLB RFO          ACCESS:          0  HIT:          0  MISS:          0  iACCESS:          0  iHIT:          0  iMISS:          0  dACCESS:          0  dHIT:          0  dMISS:          0  itACCESS:          0  itHIT:          0  itMISS:          0  dtACCESS:          0  dtHIT:          0  dtMISS:          0
cpu0_DTLB PREFETCH     ACCESS:          0  HIT:          0  MISS:          0  iACCESS:          0  iHIT:          0  iMISS:          0  dACCESS:          0  dHIT:          0  dMISS:          0  itACCESS:          0  itHIT:          0  itMISS:          0  dtACCESS:          0  dtHIT:          0  dtMISS:          0
cpu0_DTLB WRITE        ACCESS:          0  HIT:          0  MISS:          0  iACCESS:          0  iHIT:          0  iMISS:          0  dACCESS:          0  dHIT:          0  dMISS:          0  itACCESS:          0  itHIT:          0  itMISS:          0  dtACCESS:          0  dtHIT:          0  dtMISS:          0
cpu0_DTLB TRANSLATION  ACCESS:          0  HIT:          0  MISS:          0  iACCESS:          0  iHIT:          0  iMISS:          0  dACCESS:          0  dHIT:          0  dMISS:          0  itACCESS:          0  itHIT:          0  itMISS:          0  dtACCESS:          0  dtHIT:          0  dtMISS:          0
cpu0_DTLB PREFETCH  REQUESTED:          0  ISSUED:          0  CROSSED:          0  USEFUL:          0  USELESS:          0
cpu0_DTLB AVERAGE iMISS LATENCY: 0 cycles
cpu0_DTLB AVERAGE dMISS LATENCY: 11.3127 cycles
cpu0_DTLB AVERAGE itMISS LATENCY: 0 cycles
cpu0_DTLB AVERAGE dtMISS LATENCY: 0 cycles
cpu0_DTLB PAGE CROSSINGS (TLB HIT):         0 
cpu0_DTLB PAGE CROSSINGS (TLB MISS):         0 
cpu0_DTLB AVERAGE MISS LATENCY: 11.3127 cycles
cpu0_STLB TOTAL       ACCESS:    1639205  HIT:    1493005  MISS:     146200  iACCESS:     382574  iHIT:     373611  iMISS:       8963  dACCESS:    1256631  dHIT:    1119394  dMISS:     137237  itACCESS:          0  itHIT:          0  itMISS:          0  dtACCESS:          0  dtHIT:          0  dtMISS:          0
cpu0_STLB LOAD         ACCESS:    1639205  HIT:    1493005  MISS:     146200  iACCESS:     382574  iHIT:     373611  iMISS:       8963  dACCESS:    1256631  dHIT:    1119394  dMISS:     137237  itACCESS:          0  itHIT:          0  itMISS:          0  dtACCESS:          0  dtHIT:          0  dtMISS:          0
cpu0_STLB RFO          ACCESS:          0  HIT:          0  MISS:          0  iACCESS:          0  iHIT:          0  iMISS:          0  dACCESS:          0  dHIT:          0  dMISS:          0  itACCESS:          0  itHIT:          0  itMISS:          0  dtACCESS:          0  dtHIT:          0  dtMISS:          0
cpu0_STLB PREFETCH     ACCESS:          0  HIT:          0  MISS:          0  iACCESS:          0  iHIT:          0  iMISS:          0  dACCESS:          0  dHIT:          0  dMISS:          0  itACCESS:          0  itHIT:          0  itMISS:          0  dtACCESS:          0  dtHIT:          0  dtMISS:          0
cpu0_STLB WRITE        ACCESS:          0  HIT:          0  MISS:          0  iACCESS:          0  iHIT:          0  iMISS:          0  dACCESS:          0  dHIT:          0  dMISS:          0  itACCESS:          0  itHIT:          0  itMISS:          0  dtACCESS:          0  dtHIT:          0  dtMISS:          0
cpu0_STLB TRANSLATION  ACCESS:          0  HIT:          0  MISS:          0  iACCESS:          0  iHIT:          0  iMISS:          0  dACCESS:          0  dHIT:          0  dMISS:          0  itACCESS:          0  itHIT:          0  itMISS:          0  dtACCESS:          0  dtHIT:          0  dtMISS:          0
cpu0_STLB PREFETCH  REQUESTED:          0  ISSUED:          0  CROSSED:          0  USEFUL:          0  USELESS:          0
cpu0_STLB AVERAGE iMISS LATENCY: 6.04508 cycles
cpu0_STLB AVERAGE dMISS LATENCY: 94.3242 cycles
cpu0_STLB AVERAGE itMISS LATENCY: 0 cycles
cpu0_STLB AVERAGE dtMISS LATENCY: 0 cycles
cpu0_STLB PAGE CROSSINGS (TLB HIT):         0 
cpu0_STLB PAGE CROSSINGS (TLB MISS):         0 
cpu0_STLB AVERAGE MISS LATENCY: 100.37 cycles
cpu0_L1D TOTAL       ACCESS:   41547933  HIT:   38096932  MISS:    3451001  iACCESS:          0  iHIT:          0  iMISS:          0  dACCESS:   41331696  dHIT:   38083108  dMISS:    3248588  itACCESS:      10388  itHIT:       1216  itMISS:       9172  dtACCESS:     205849  dtHIT:      12608  dtMISS:     193241
cpu0_L1D LOAD         ACCESS:   18950462  HIT:   17466088  MISS:    1484374  iACCESS:          0  iHIT:          0  iMISS:          0  dACCESS:   18950462  dHIT:   17466088  dMISS:    1484374  itACCESS:          0  itHIT:          0  itMISS:          0  dtACCESS:          0  dtHIT:          0  dtMISS:          0
cpu0_L1D RFO          ACCESS:          0  HIT:          0  MISS:          0  iACCESS:          0  iHIT:          0  iMISS:          0  dACCESS:          0  dHIT:          0  dMISS:          0  itACCESS:          0  itHIT:          0  itMISS:          0  dtACCESS:          0  dtHIT:          0  dtMISS:          0
cpu0_L1D PREFETCH     ACCESS:   12217609  HIT:   10873449  MISS:    1344160  iACCESS:          0  iHIT:          0  iMISS:          0  dACCESS:   12217609  dHIT:   10873449  dMISS:    1344160  itACCESS:          0  itHIT:          0  itMISS:          0  dtACCESS:          0  dtHIT:          0  dtMISS:          0
cpu0_L1D WRITE        ACCESS:   10163625  HIT:    9743571  MISS:     420054  iACCESS:          0  iHIT:          0  iMISS:          0  dACCESS:   10163625  dHIT:    9743571  dMISS:     420054  itACCESS:          0  itHIT:          0  itMISS:          0  dtACCESS:          0  dtHIT:          0  dtMISS:          0
cpu0_L1D TRANSLATION  ACCESS:     216237  HIT:      13824  MISS:     202413  iACCESS:          0  iHIT:          0  iMISS:          0  dACCESS:          0  dHIT:          0  dMISS:          0  itACCESS:      10388  itHIT:       1216  itMISS:       9172  dtACCESS:     205849  dtHIT:      12608  dtMISS:     193241
cpu0_L1D PREFETCH  REQUESTED:   18950462  ISSUED:   17085094  CROSSED:          0  USEFUL:     306997  USELESS:     707624
cpu0_L1D AVERAGE iMISS LATENCY: 0 cycles
cpu0_L1D AVERAGE dMISS LATENCY: 33.9813 cycles
cpu0_L1D AVERAGE itMISS LATENCY: 0.227615 cycles
cpu0_L1D AVERAGE dtMISS LATENCY: 3.22094 cycles
cpu0_L1D PAGE CROSSINGS (TLB HIT):         0 
cpu0_L1D PAGE CROSSINGS (TLB MISS):         0 
cpu0_L1D AVERAGE MISS LATENCY: 37.4299 cycles
cpu0_L2C TOTAL       ACCESS:    7041587  HIT:    1690038  MISS:    5351549  iACCESS:    3323083  iHIT:     868063  iMISS:    2455020  dACCESS:    3526922  dHIT:     723119  dMISS:    2803803  itACCESS:       9172  itHIT:       4071  itMISS:       5101  dtACCESS:     182410  dtHIT:      94785  dtMISS:      87625
cpu0_L2C LOAD         ACCESS:    1710553  HIT:     305581  MISS:    1404972  iACCESS:     774849  iHIT:     153504  iMISS:     621345  dACCESS:     935704  dHIT:     152077  dMISS:     783627  itACCESS:          0  itHIT:          0  itMISS:          0  dtACCESS:          0  dtHIT:          0  dtMISS:          0
cpu0_L2C RFO          ACCESS:     159432  HIT:      53161  MISS:     106271  iACCESS:          0  iHIT:          0  iMISS:          0  dACCESS:     159432  dHIT:      53161  dMISS:     106271  itACCESS:          0  itHIT:          0  itMISS:          0  dtACCESS:          0  dtHIT:          0  dtMISS:          0
cpu0_L2C PREFETCH     ACCESS:    4697954  HIT:    1092385  MISS:    3605569  iACCESS:    2548234  iHIT:     714559  iMISS:    1833675  dACCESS:    2149720  dHIT:     377826  dMISS:    1771894  itACCESS:          0  itHIT:          0  itMISS:          0  dtACCESS:          0  dtHIT:          0  dtMISS:          0
cpu0_L2C WRITE        ACCESS:     282066  HIT:     140055  MISS:     142011  iACCESS:          0  iHIT:          0  iMISS:          0  dACCESS:     282066  dHIT:     140055  dMISS:     142011  itACCESS:          0  itHIT:          0  itMISS:          0  dtACCESS:          0  dtHIT:          0  dtMISS:          0
cpu0_L2C TRANSLATION  ACCESS:     191582  HIT:      98856  MISS:      92726  iACCESS:          0  iHIT:          0  iMISS:          0  dACCESS:          0  dHIT:          0  dMISS:          0  itACCESS:       9172  itHIT:       4071  itMISS:       5101  dtACCESS:     182410  dtHIT:      94785  dtMISS:      87625
cpu0_L2C PREFETCH  REQUESTED:    1401189  ISSUED:    1401189  CROSSED:          0  USEFUL:     418786  USELESS:     375402
cpu0_L2C AVERAGE iMISS LATENCY: 15.4107 cycles
cpu0_L2C AVERAGE dMISS LATENCY: 25.5769 cycles
cpu0_L2C AVERAGE itMISS LATENCY: 0.130359 cycles
cpu0_L2C AVERAGE dtMISS LATENCY: 1.752 cycles
cpu0_L2C PAGE CROSSINGS (TLB HIT):         0 
cpu0_L2C PAGE CROSSINGS (TLB MISS):         0 
cpu0_L2C AVERAGE MISS LATENCY: 42.8699 cycles
LLC TOTAL       ACCESS:    5229856  HIT:    4389612  MISS:     840244  iACCESS:    2399466  iHIT:    2152280  iMISS:     247186  dACCESS:    2737664  dHIT:    2191304  dMISS:     546360  itACCESS:       5101  itHIT:       1691  itMISS:       3410  dtACCESS:      87625  dtHIT:      44337  dtMISS:      43288
LLC LOAD         ACCESS:    1402837  HIT:    1219805  MISS:     183032  iACCESS:     619749  iHIT:     568449  iMISS:      51300  dACCESS:     783088  dHIT:     651356  dMISS:     131732  itACCESS:          0  itHIT:          0  itMISS:          0  dtACCESS:          0  dtHIT:          0  dtMISS:          0
LLC RFO          ACCESS:     106268  HIT:      72401  MISS:      33867  iACCESS:          0  iHIT:          0  iMISS:          0  dACCESS:     106268  dHIT:      72401  dMISS:      33867  itACCESS:          0  itHIT:          0  itMISS:          0  dtACCESS:          0  dtHIT:          0  dtMISS:          0
LLC PREFETCH     ACCESS:    3494197  HIT:    2926855  MISS:     567342  iACCESS:    1779717  iHIT:    1583831  iMISS:     195886  dACCESS:    1714480  dHIT:    1343024  dMISS:     371456  itACCESS:          0  itHIT:          0  itMISS:          0  dtACCESS:          0  dtHIT:          0  dtMISS:          0
LLC WRITE        ACCESS:     133828  HIT:     124523  MISS:       9305  iACCESS:          0  iHIT:          0  iMISS:          0  dACCESS:     133828  dHIT:     124523  dMISS:       9305  itACCESS:          0  itHIT:          0  itMISS:          0  dtACCESS:          0  dtHIT:          0  dtMISS:          0
LLC TRANSLATION  ACCESS:      92726  HIT:      46028  MISS:      46698  iACCESS:          0  iHIT:          0  iMISS:          0  dACCESS:          0  dHIT:          0  dMISS:          0  itACCESS:       5101  itHIT:       1691  itMISS:       3410  dtACCESS:      87625  dtHIT:      44337  dtMISS:      43288
LLC PREFETCH  REQUESTED:          0  ISSUED:          0  CROSSED:          0  USEFUL:          0  USELESS:          0
LLC AVERAGE iMISS LATENCY: 43.0402 cycles
LLC AVERAGE dMISS LATENCY: 103.029 cycles
LLC AVERAGE itMISS LATENCY: 0.711183 cycles
LLC AVERAGE dtMISS LATENCY: 9.12651 cycles
LLC PAGE CROSSINGS (TLB HIT):         0 
LLC PAGE CROSSINGS (TLB MISS):         0 
LLC AVERAGE MISS LATENCY: 155.907 cycles

PageTableWalker TOTAL       ACCESS:      71296  
PageTableWalker AVERAGE LATENCY: 5.09792 cycles
PageTableWalker TOTAL LATENCY: 363461 cycles

DRAM Statistics
Channel 0
 RQ ROW_BUFFER_HIT:     228580
  ROW_BUFFER_MISS:     602320
 AVG DBUS CONGESTED CYCLE:    3.61674
 WQ ROW_BUFFER_HIT:      15275
  ROW_BUFFER_MISS:      21482  FULL:          0

