last_page:0x200000000000000
VMEM_RES_CAP:0x100000
PAGE_SIZE:4096
LOG2_PAGE_SIZE:12
LOG2_PAGE_TABLE_SIZE:9
page_table_levels:5
WARNING: physical memory size is smaller than virtual memory size
FDiP enabled with aggresivity 16

*** ChampSim Multicore Out-of-Order Simulator ***

Warmup Instructions: 50000000
Simulation Instructions: 100000000
Number of CPUs: 1
Small page size: 4096
Large page size: 2097152

CPU 0 Bimodal branch predictor
Basic BTB sets: 1024 ways: 8 indirect buffer size: 4096 RAS size: 64
Instruction page size distrubution: 0
Loading instruction page size distribution from /home/bsc/bsc018186/scratch/itp_asplos25_AE/dump/srv255_ap.pdst
Data page size distrubution: 0
Loading data page size distribution from /home/bsc/bsc018186/scratch/itp_asplos25_AE/dump/srv255_ap.pdst
cpu0_L2C IP-based stride prefetcher
cpu0_L1D next line prefetcher
cpu0_L1I next line prefetcher
Off-chip DRAM Size: 4 GiB Channels: 1 Width: 64-bit Data Rate: 3200 MT/s
Heartbeat CPU 0 instructions: 10000003 cycles: 2500151 heartbeat IPC: 3.99976 cumulative IPC: 3.99976 (Simulation time: 0 hr 0 min 34 sec) 
Heartbeat CPU 0 instructions: 20000001 cycles: 5000190 heartbeat IPC: 3.99994 cumulative IPC: 3.99985 (Simulation time: 0 hr 1 min 11 sec) 
Heartbeat CPU 0 instructions: 30000001 cycles: 7500190 heartbeat IPC: 4 cumulative IPC: 3.9999 (Simulation time: 0 hr 1 min 49 sec) 
Heartbeat CPU 0 instructions: 40000003 cycles: 10000211 heartbeat IPC: 3.99997 cumulative IPC: 3.99992 (Simulation time: 0 hr 2 min 26 sec) 
Heartbeat CPU 0 instructions: 50000000 cycles: 12500291 heartbeat IPC: 3.99988 cumulative IPC: 3.99991 (Simulation time: 0 hr 3 min 10 sec) 
Warmup finished CPU 0 instructions: 50000000 cycles: 12500292 cumulative IPC: 3.99991 (Simulation time: 0 hr 3 min 10 sec) 

Warmup complete CPU 0 instructions: 50000000 cycles: 12500292 (Simulation time: 0 hr 3 min 10 sec) 

Heartbeat CPU 0 instructions: 60000000 cycles: 33266863 heartbeat IPC: 0.481544 cumulative IPC: 0.481544 (Simulation time: 0 hr 4 min 20 sec) 
Heartbeat CPU 0 instructions: 70000000 cycles: 53175792 heartbeat IPC: 0.502288 cumulative IPC: 0.491697 (Simulation time: 0 hr 5 min 27 sec) 
Heartbeat CPU 0 instructions: 80000001 cycles: 74056507 heartbeat IPC: 0.478911 cumulative IPC: 0.48736 (Simulation time: 0 hr 6 min 35 sec) 
Heartbeat CPU 0 instructions: 90000001 cycles: 94710022 heartbeat IPC: 0.48418 cumulative IPC: 0.486561 (Simulation time: 0 hr 7 min 43 sec) 
Heartbeat CPU 0 instructions: 100000001 cycles: 114756484 heartbeat IPC: 0.498842 cumulative IPC: 0.488968 (Simulation time: 0 hr 8 min 50 sec) 
*** Reached end of trace: /gpfs/projects/bsc18/MN4/bsc18/romol/ChampSim/traces/qualcomm_srv/srv255_ap.champsimtrace.xz
Heartbeat CPU 0 instructions: 110000003 cycles: 135815254 heartbeat IPC: 0.474862 cumulative IPC: 0.486559 (Simulation time: 0 hr 9 min 58 sec) 
Heartbeat CPU 0 instructions: 120000002 cycles: 156028693 heartbeat IPC: 0.494721 cumulative IPC: 0.487709 (Simulation time: 0 hr 11 min 5 sec) 
Heartbeat CPU 0 instructions: 130000003 cycles: 175939605 heartbeat IPC: 0.502238 cumulative IPC: 0.489479 (Simulation time: 0 hr 12 min 12 sec) 
Heartbeat CPU 0 instructions: 140000002 cycles: 196335963 heartbeat IPC: 0.490284 cumulative IPC: 0.489568 (Simulation time: 0 hr 13 min 20 sec) 
Heartbeat CPU 0 instructions: 150000000 cycles: 216195296 heartbeat IPC: 0.503542 cumulative IPC: 0.490931 (Simulation time: 0 hr 14 min 26 sec) 
Simulation finished CPU 0 instructions: 100000000 cycles: 203695005 cumulative IPC: 0.490931 (Simulation time: 0 hr 14 min 26 sec) 

Simulation complete CPU 0 instructions: 100000000 cycles: 203695005 (Simulation time: 0 hr 14 min 26 sec) 


ChampSim completed all CPUs

Saving instructions large page distribution to /home/bsc/bsc018186/scratch/itp_asplos25_AE/dump/srv255_ap.pdst...
Saving data large page distribution to /home/bsc/bsc018186/scratch/itp_asplos25_AE/dump/srv255_ap.pdst...
=== Simulation ===
CPU 0 runs /gpfs/projects/bsc18/MN4/bsc18/romol/ChampSim/traces/qualcomm_srv/srv255_ap.champsimtrace.xz

Region of Interest Statistics

CPU 0 cumulative IPC: 0.490931 instructions: 100000000 cycles: 203695005
CPU 0 Branch Prediction Accuracy: 80.5354% MPKI: 35.1582 Average ROB Occupancy at Mispredict: 10.8082
Branch type MPKI
BRANCH_DIRECT_JUMP: 1.2894
BRANCH_INDIRECT: 17.6228
BRANCH_CONDITIONAL: 11.4115
BRANCH_DIRECT_CALL: 2.42672
BRANCH_INDIRECT_CALL: 0.697521
BRANCH_RETURN: 1.71029

Instructions large pages: 0
Instructions small pages: 5597
Large page distribution for instructions: 0%

Data large pages: 0
Data small pages: 4546
Large page distribution for data: 0%

cpu0_L1I TOTAL       ACCESS:   35315173  HIT:   27445632  MISS:    7869541  iACCESS:   35315173  iHIT:   27445632  iMISS:    7869541  dACCESS:          0  dHIT:          0  dMISS:          0  itACCESS:          0  itHIT:          0  itMISS:          0  dtACCESS:          0  dtHIT:          0  dtMISS:          0
cpu0_L1I LOAD         ACCESS:   10179056  HIT:    8011077  MISS:    2167979  iACCESS:   10179056  iHIT:    8011077  iMISS:    2167979  dACCESS:          0  dHIT:          0  dMISS:          0  itACCESS:          0  itHIT:          0  itMISS:          0  dtACCESS:          0  dtHIT:          0  dtMISS:          0
cpu0_L1I RFO          ACCESS:          0  HIT:          0  MISS:          0  iACCESS:          0  iHIT:          0  iMISS:          0  dACCESS:          0  dHIT:          0  dMISS:          0  itACCESS:          0  itHIT:          0  itMISS:          0  dtACCESS:          0  dtHIT:          0  dtMISS:          0
cpu0_L1I PREFETCH     ACCESS:   25136117  HIT:   19434555  MISS:    5701562  iACCESS:   25136117  iHIT:   19434555  iMISS:    5701562  dACCESS:          0  dHIT:          0  dMISS:          0  itACCESS:          0  itHIT:          0  itMISS:          0  dtACCESS:          0  dtHIT:          0  dtMISS:          0
cpu0_L1I WRITE        ACCESS:          0  HIT:          0  MISS:          0  iACCESS:          0  iHIT:          0  iMISS:          0  dACCESS:          0  dHIT:          0  dMISS:          0  itACCESS:          0  itHIT:          0  itMISS:          0  dtACCESS:          0  dtHIT:          0  dtMISS:          0
cpu0_L1I TRANSLATION  ACCESS:          0  HIT:          0  MISS:          0  iACCESS:          0  iHIT:          0  iMISS:          0  dACCESS:          0  dHIT:          0  dMISS:          0  itACCESS:          0  itHIT:          0  itMISS:          0  dtACCESS:          0  dtHIT:          0  dtMISS:          0
cpu0_L1I PREFETCH  REQUESTED:   27531373  ISSUED:   27531319  CROSSED:          0  USEFUL:    1964210  USELESS:     658580
cpu0_L1I AVERAGE iMISS LATENCY: 19.196 cycles
cpu0_L1I AVERAGE dMISS LATENCY: 0 cycles
cpu0_L1I AVERAGE itMISS LATENCY: 0 cycles
cpu0_L1I AVERAGE dtMISS LATENCY: 0 cycles
cpu0_L1I PAGE CROSSINGS (TLB HIT):         0 
cpu0_L1I PAGE CROSSINGS (TLB MISS):         0 
cpu0_L1I AVERAGE MISS LATENCY: 19.196 cycles
cpu0_ITLB TOTAL       ACCESS:   29792170  HIT:   27828539  MISS:    1963631  iACCESS:   29792170  iHIT:   27828539  iMISS:    1963631  dACCESS:          0  dHIT:          0  dMISS:          0  itACCESS:          0  itHIT:          0  itMISS:          0  dtACCESS:          0  dtHIT:          0  dtMISS:          0
cpu0_ITLB LOAD         ACCESS:   29792170  HIT:   27828539  MISS:    1963631  iACCESS:   29792170  iHIT:   27828539  iMISS:    1963631  dACCESS:          0  dHIT:          0  dMISS:          0  itACCESS:          0  itHIT:          0  itMISS:          0  dtACCESS:          0  dtHIT:          0  dtMISS:          0
cpu0_ITLB RFO          ACCESS:          0  HIT:          0  MISS:          0  iACCESS:          0  iHIT:          0  iMISS:          0  dACCESS:          0  dHIT:          0  dMISS:          0  itACCESS:          0  itHIT:          0  itMISS:          0  dtACCESS:          0  dtHIT:          0  dtMISS:          0
cpu0_ITLB PREFETCH     ACCESS:          0  HIT:          0  MISS:          0  iACCESS:          0  iHIT:          0  iMISS:          0  dACCESS:          0  dHIT:          0  dMISS:          0  itACCESS:          0  itHIT:          0  itMISS:          0  dtACCESS:          0  dtHIT:          0  dtMISS:          0
cpu0_ITLB WRITE        ACCESS:          0  HIT:          0  MISS:          0  iACCESS:          0  iHIT:          0  iMISS:          0  dACCESS:          0  dHIT:          0  dMISS:          0  itACCESS:          0  itHIT:          0  itMISS:          0  dtACCESS:          0  dtHIT:          0  dtMISS:          0
cpu0_ITLB TRANSLATION  ACCESS:          0  HIT:          0  MISS:          0  iACCESS:          0  iHIT:          0  iMISS:          0  dACCESS:          0  dHIT:          0  dMISS:          0  itACCESS:          0  itHIT:          0  itMISS:          0  dtACCESS:          0  dtHIT:          0  dtMISS:          0
cpu0_ITLB PREFETCH  REQUESTED:          0  ISSUED:          0  CROSSED:          0  USEFUL:     329627  USELESS:      63112
cpu0_ITLB AVERAGE iMISS LATENCY: 7.71049 cycles
cpu0_ITLB AVERAGE dMISS LATENCY: 0 cycles
cpu0_ITLB AVERAGE itMISS LATENCY: 0 cycles
cpu0_ITLB AVERAGE dtMISS LATENCY: 0 cycles
cpu0_ITLB PAGE CROSSINGS (TLB HIT):         0 
cpu0_ITLB PAGE CROSSINGS (TLB MISS):         0 
cpu0_ITLB AVERAGE MISS LATENCY: 7.71049 cycles
cpu0_DTLB TOTAL       ACCESS:   27981708  HIT:   26045011  MISS:    1936697  iACCESS:          0  iHIT:          0  iMISS:          0  dACCESS:   27981708  dHIT:   26045011  dMISS:    1936697  itACCESS:          0  itHIT:          0  itMISS:          0  dtACCESS:          0  dtHIT:          0  dtMISS:          0
cpu0_DTLB LOAD         ACCESS:   27981708  HIT:   26045011  MISS:    1936697  iACCESS:          0  iHIT:          0  iMISS:          0  dACCESS:   27981708  dHIT:   26045011  dMISS:    1936697  itACCESS:          0  itHIT:          0  itMISS:          0  dtACCESS:          0  dtHIT:          0  dtMISS:          0
cpu0_DTLB RFO          ACCESS:          0  HIT:          0  MISS:          0  iACCESS:          0  iHIT:          0  iMISS:          0  dACCESS:          0  dHIT:          0  dMISS:          0  itACCESS:          0  itHIT:          0  itMISS:          0  dtACCESS:          0  dtHIT:          0  dtMISS:          0
cpu0_DTLB PREFETCH     ACCESS:          0  HIT:          0  MISS:          0  iACCESS:          0  iHIT:          0  iMISS:          0  dACCESS:          0  dHIT:          0  dMISS:          0  itACCESS:          0  itHIT:          0  itMISS:          0  dtACCESS:          0  dtHIT:          0  dtMISS:          0
cpu0_DTLB WRITE        ACCESS:          0  HIT:          0  MISS:          0  iACCESS:          0  iHIT:          0  iMISS:          0  dACCESS:          0  dHIT:          0  dMISS:          0  itACCESS:          0  itHIT:          0  itMISS:          0  dtACCESS:          0  dtHIT:          0  dtMISS:          0
cpu0_DTLB TRANSLATION  ACCESS:          0  HIT:          0  MISS:          0  iACCESS:          0  iHIT:          0  iMISS:          0  dACCESS:          0  dHIT:          0  dMISS:          0  itACCESS:          0  itHIT:          0  itMISS:          0  dtACCESS:          0  dtHIT:          0  dtMISS:          0
cpu0_DTLB PREFETCH  REQUESTED:          0  ISSUED:          0  CROSSED:          0  USEFUL:          0  USELESS:          0
cpu0_DTLB AVERAGE iMISS LATENCY: 0 cycles
cpu0_DTLB AVERAGE dMISS LATENCY: 20.4005 cycles
cpu0_DTLB AVERAGE itMISS LATENCY: 0 cycles
cpu0_DTLB AVERAGE dtMISS LATENCY: 0 cycles
cpu0_DTLB PAGE CROSSINGS (TLB HIT):         0 
cpu0_DTLB PAGE CROSSINGS (TLB MISS):         0 
cpu0_DTLB AVERAGE MISS LATENCY: 20.4005 cycles
cpu0_STLB TOTAL       ACCESS:    1603674  HIT:    1374107  MISS:     229567  iACCESS:     392739  iHIT:     305962  iMISS:      86777  dACCESS:    1210935  dHIT:    1068145  dMISS:     142790  itACCESS:          0  itHIT:          0  itMISS:          0  dtACCESS:          0  dtHIT:          0  dtMISS:          0
cpu0_STLB LOAD         ACCESS:    1603674  HIT:    1374107  MISS:     229567  iACCESS:     392739  iHIT:     305962  iMISS:      86777  dACCESS:    1210935  dHIT:    1068145  dMISS:     142790  itACCESS:          0  itHIT:          0  itMISS:          0  dtACCESS:          0  dtHIT:          0  dtMISS:          0
cpu0_STLB RFO          ACCESS:          0  HIT:          0  MISS:          0  iACCESS:          0  iHIT:          0  iMISS:          0  dACCESS:          0  dHIT:          0  dMISS:          0  itACCESS:          0  itHIT:          0  itMISS:          0  dtACCESS:          0  dtHIT:          0  dtMISS:          0
cpu0_STLB PREFETCH     ACCESS:          0  HIT:          0  MISS:          0  iACCESS:          0  iHIT:          0  iMISS:          0  dACCESS:          0  dHIT:          0  dMISS:          0  itACCESS:          0  itHIT:          0  itMISS:          0  dtACCESS:          0  dtHIT:          0  dtMISS:          0
cpu0_STLB WRITE        ACCESS:          0  HIT:          0  MISS:          0  iACCESS:          0  iHIT:          0  iMISS:          0  dACCESS:          0  dHIT:          0  dMISS:          0  itACCESS:          0  itHIT:          0  itMISS:          0  dtACCESS:          0  dtHIT:          0  dtMISS:          0
cpu0_STLB TRANSLATION  ACCESS:          0  HIT:          0  MISS:          0  iACCESS:          0  iHIT:          0  iMISS:          0  dACCESS:          0  dHIT:          0  dMISS:          0  itACCESS:          0  itHIT:          0  itMISS:          0  dtACCESS:          0  dtHIT:          0  dtMISS:          0
cpu0_STLB PREFETCH  REQUESTED:          0  ISSUED:          0  CROSSED:          0  USEFUL:          0  USELESS:          0
cpu0_STLB AVERAGE iMISS LATENCY: 52.2925 cycles
cpu0_STLB AVERAGE dMISS LATENCY: 129.897 cycles
cpu0_STLB AVERAGE itMISS LATENCY: 0 cycles
cpu0_STLB AVERAGE dtMISS LATENCY: 0 cycles
cpu0_STLB PAGE CROSSINGS (TLB HIT):         0 
cpu0_STLB PAGE CROSSINGS (TLB MISS):         0 
cpu0_STLB AVERAGE MISS LATENCY: 182.19 cycles
cpu0_L1D TOTAL       ACCESS:   42595607  HIT:   38448537  MISS:    4147070  iACCESS:          0  iHIT:          0  iMISS:          0  dACCESS:   42299910  dHIT:   38421802  dMISS:    3878108  itACCESS:      93048  itHIT:      14898  itMISS:      78150  dtACCESS:     202649  dtHIT:      11837  dtMISS:     190812
cpu0_L1D LOAD         ACCESS:   19361556  HIT:   17599714  MISS:    1761842  iACCESS:          0  iHIT:          0  iMISS:          0  dACCESS:   19361556  dHIT:   17599714  dMISS:    1761842  itACCESS:          0  itHIT:          0  itMISS:          0  dtACCESS:          0  dtHIT:          0  dtMISS:          0
cpu0_L1D RFO          ACCESS:          0  HIT:          0  MISS:          0  iACCESS:          0  iHIT:          0  iMISS:          0  dACCESS:          0  dHIT:          0  dMISS:          0  itACCESS:          0  itHIT:          0  itMISS:          0  dtACCESS:          0  dtHIT:          0  dtMISS:          0
cpu0_L1D PREFETCH     ACCESS:   12742374  HIT:   11110758  MISS:    1631616  iACCESS:          0  iHIT:          0  iMISS:          0  dACCESS:   12742374  dHIT:   11110758  dMISS:    1631616  itACCESS:          0  itHIT:          0  itMISS:          0  dtACCESS:          0  dtHIT:          0  dtMISS:          0
cpu0_L1D WRITE        ACCESS:   10195980  HIT:    9711330  MISS:     484650  iACCESS:          0  iHIT:          0  iMISS:          0  dACCESS:   10195980  dHIT:    9711330  dMISS:     484650  itACCESS:          0  itHIT:          0  itMISS:          0  dtACCESS:          0  dtHIT:          0  dtMISS:          0
cpu0_L1D TRANSLATION  ACCESS:     295697  HIT:      26735  MISS:     268962  iACCESS:          0  iHIT:          0  iMISS:          0  dACCESS:          0  dHIT:          0  dMISS:          0  itACCESS:      93048  itHIT:      14898  itMISS:      78150  dtACCESS:     202649  dtHIT:      11837  dtMISS:     190812
cpu0_L1D PREFETCH  REQUESTED:   19361556  ISSUED:   17234205  CROSSED:          0  USEFUL:     306757  USELESS:     698375
cpu0_L1D AVERAGE iMISS LATENCY: 0 cycles
cpu0_L1D AVERAGE dMISS LATENCY: 39.5516 cycles
cpu0_L1D AVERAGE itMISS LATENCY: 2.71452 cycles
cpu0_L1D AVERAGE dtMISS LATENCY: 6.71056 cycles
cpu0_L1D PAGE CROSSINGS (TLB HIT):         0 
cpu0_L1D PAGE CROSSINGS (TLB MISS):         0 
cpu0_L1D AVERAGE MISS LATENCY: 48.9767 cycles
cpu0_L2C TOTAL       ACCESS:    7229886  HIT:    3726987  MISS:    3502899  iACCESS:    3363245  iHIT:    2048170  iMISS:    1315075  dACCESS:    3609877  dHIT:    1643051  dMISS:    1966826  itACCESS:      78150  itHIT:      12847  itMISS:      65303  dtACCESS:     178614  dtHIT:      22919  dtMISS:     155695
cpu0_L2C LOAD         ACCESS:    1721657  HIT:     921985  MISS:     799672  iACCESS:     777693  iHIT:     501645  iMISS:     276048  dACCESS:     943964  dHIT:     420340  dMISS:     523624  itACCESS:          0  itHIT:          0  itMISS:          0  dtACCESS:          0  dtHIT:          0  dtMISS:          0
cpu0_L2C RFO          ACCESS:     164740  HIT:      63484  MISS:     101256  iACCESS:          0  iHIT:          0  iMISS:          0  dACCESS:     164740  dHIT:      63484  dMISS:     101256  itACCESS:          0  itHIT:          0  itMISS:          0  dtACCESS:          0  dtHIT:          0  dtMISS:          0
cpu0_L2C PREFETCH     ACCESS:    4813011  HIT:    2433435  MISS:    2379576  iACCESS:    2585552  iHIT:    1546525  iMISS:    1039027  dACCESS:    2227459  dHIT:     886910  dMISS:    1340549  itACCESS:          0  itHIT:          0  itMISS:          0  dtACCESS:          0  dtHIT:          0  dtMISS:          0
cpu0_L2C WRITE        ACCESS:     273714  HIT:     272317  MISS:       1397  iACCESS:          0  iHIT:          0  iMISS:          0  dACCESS:     273714  dHIT:     272317  dMISS:       1397  itACCESS:          0  itHIT:          0  itMISS:          0  dtACCESS:          0  dtHIT:          0  dtMISS:          0
cpu0_L2C TRANSLATION  ACCESS:     256764  HIT:      35766  MISS:     220998  iACCESS:          0  iHIT:          0  iMISS:          0  dACCESS:          0  dHIT:          0  dMISS:          0  itACCESS:      78150  itHIT:      12847  itMISS:      65303  dtACCESS:     178614  dtHIT:      22919  dtMISS:     155695
cpu0_L2C PREFETCH  REQUESTED:    1477680  ISSUED:    1477652  CROSSED:          0  USEFUL:     346328  USELESS:     291575
cpu0_L2C AVERAGE iMISS LATENCY: 34.6099 cycles
cpu0_L2C AVERAGE dMISS LATENCY: 59.8691 cycles
cpu0_L2C AVERAGE itMISS LATENCY: 2.99351 cycles
cpu0_L2C AVERAGE dtMISS LATENCY: 7.43832 cycles
cpu0_L2C PAGE CROSSINGS (TLB HIT):         0 
cpu0_L2C PAGE CROSSINGS (TLB MISS):         0 
cpu0_L2C AVERAGE MISS LATENCY: 104.911 cycles
LLC TOTAL       ACCESS:    3468477  HIT:    1564107  MISS:    1904370  iACCESS:    1239092  iHIT:     581549  iMISS:     657543  dACCESS:    2008387  dHIT:     937363  dMISS:    1071024  itACCESS:      65303  itHIT:      12063  itMISS:      53240  dtACCESS:     155695  dtHIT:      33132  dtMISS:     122563
LLC LOAD         ACCESS:     793618  HIT:     382618  MISS:     411000  iACCESS:     274684  iHIT:     135156  iMISS:     139528  dACCESS:     518934  dHIT:     247462  dMISS:     271472  itACCESS:          0  itHIT:          0  itMISS:          0  dtACCESS:          0  dtHIT:          0  dtMISS:          0
LLC RFO          ACCESS:     101236  HIT:      37458  MISS:      63778  iACCESS:          0  iHIT:          0  iMISS:          0  dACCESS:     101236  dHIT:      37458  dMISS:      63778  itACCESS:          0  itHIT:          0  itMISS:          0  dtACCESS:          0  dtHIT:          0  dtMISS:          0
LLC PREFETCH     ACCESS:    2207147  HIT:     962246  MISS:    1244901  iACCESS:     964408  iHIT:     446393  iMISS:     518015  dACCESS:    1242739  dHIT:     515853  dMISS:     726886  itACCESS:          0  itHIT:          0  itMISS:          0  dtACCESS:          0  dtHIT:          0  dtMISS:          0
LLC WRITE        ACCESS:     145478  HIT:     136590  MISS:       8888  iACCESS:          0  iHIT:          0  iMISS:          0  dACCESS:     145478  dHIT:     136590  dMISS:       8888  itACCESS:          0  itHIT:          0  itMISS:          0  dtACCESS:          0  dtHIT:          0  dtMISS:          0
LLC TRANSLATION  ACCESS:     220998  HIT:      45195  MISS:     175803  iACCESS:          0  iHIT:          0  iMISS:          0  dACCESS:          0  dHIT:          0  dMISS:          0  itACCESS:      65303  itHIT:      12063  itMISS:      53240  dtACCESS:     155695  dtHIT:      33132  dtMISS:     122563
LLC PREFETCH  REQUESTED:          0  ISSUED:          0  CROSSED:          0  USEFUL:          0  USELESS:          0
LLC AVERAGE iMISS LATENCY: 50.9344 cycles
LLC AVERAGE dMISS LATENCY: 91.8026 cycles
LLC AVERAGE itMISS LATENCY: 4.82913 cycles
LLC AVERAGE dtMISS LATENCY: 12.0726 cycles
LLC PAGE CROSSINGS (TLB HIT):         0 
LLC PAGE CROSSINGS (TLB MISS):         0 
LLC AVERAGE MISS LATENCY: 159.639 cycles

PageTableWalker TOTAL       ACCESS:     114574  
PageTableWalker AVERAGE LATENCY: 5.03009 cycles
PageTableWalker TOTAL LATENCY: 576317 cycles

DRAM Statistics
Channel 0
 RQ ROW_BUFFER_HIT:     524013
  ROW_BUFFER_MISS:    1359083
 AVG DBUS CONGESTED CYCLE:    3.63152
 WQ ROW_BUFFER_HIT:      37299
  ROW_BUFFER_MISS:      25786  FULL:          0

