last_page:0x200000000000000
VMEM_RES_CAP:0x100000
PAGE_SIZE:4096
LOG2_PAGE_SIZE:12
LOG2_PAGE_TABLE_SIZE:9
page_table_levels:5
WARNING: physical memory size is smaller than virtual memory size
FDiP enabled with aggresivity 16

*** ChampSim Multicore Out-of-Order Simulator ***

Warmup Instructions: 50000000
Simulation Instructions: 100000000
Number of CPUs: 1
Small page size: 4096
Large page size: 2097152

CPU 0 Bimodal branch predictor
Basic BTB sets: 1024 ways: 8 indirect buffer size: 4096 RAS size: 64
Instruction page size distrubution: 0
Loading instruction page size distribution from /home/bsc/bsc018186/scratch/itp_asplos25_AE/dump/srv228_ap.pdst
Data page size distrubution: 0
Loading data page size distribution from /home/bsc/bsc018186/scratch/itp_asplos25_AE/dump/srv228_ap.pdst
cpu0_L2C IP-based stride prefetcher
cpu0_L1D next line prefetcher
cpu0_L1I next line prefetcher
Off-chip DRAM Size: 4 GiB Channels: 1 Width: 64-bit Data Rate: 3200 MT/s
Heartbeat CPU 0 instructions: 10000002 cycles: 2500290 heartbeat IPC: 3.99954 cumulative IPC: 3.99954 (Simulation time: 0 hr 0 min 34 sec) 
Heartbeat CPU 0 instructions: 20000001 cycles: 5000358 heartbeat IPC: 3.9999 cumulative IPC: 3.99972 (Simulation time: 0 hr 1 min 11 sec) 
Heartbeat CPU 0 instructions: 30000003 cycles: 7500402 heartbeat IPC: 3.99994 cumulative IPC: 3.99979 (Simulation time: 0 hr 1 min 48 sec) 
Heartbeat CPU 0 instructions: 40000000 cycles: 10000430 heartbeat IPC: 3.99996 cumulative IPC: 3.99983 (Simulation time: 0 hr 2 min 25 sec) 
Heartbeat CPU 0 instructions: 50000002 cycles: 12500433 heartbeat IPC: 4 cumulative IPC: 3.99987 (Simulation time: 0 hr 3 min 2 sec) 
Warmup finished CPU 0 instructions: 50000002 cycles: 12500434 cumulative IPC: 3.99987 (Simulation time: 0 hr 3 min 2 sec) 

Warmup complete CPU 0 instructions: 50000002 cycles: 12500434 (Simulation time: 0 hr 3 min 2 sec) 

Heartbeat CPU 0 instructions: 60000000 cycles: 28536654 heartbeat IPC: 0.623589 cumulative IPC: 0.623589 (Simulation time: 0 hr 4 min 3 sec) 
Heartbeat CPU 0 instructions: 70000003 cycles: 44392688 heartbeat IPC: 0.630675 cumulative IPC: 0.627112 (Simulation time: 0 hr 5 min 4 sec) 
Heartbeat CPU 0 instructions: 80000002 cycles: 59776473 heartbeat IPC: 0.650036 cumulative IPC: 0.634571 (Simulation time: 0 hr 6 min 5 sec) 
Heartbeat CPU 0 instructions: 90000004 cycles: 75249000 heartbeat IPC: 0.646307 cumulative IPC: 0.637465 (Simulation time: 0 hr 7 min 6 sec) 
Heartbeat CPU 0 instructions: 100000001 cycles: 90802195 heartbeat IPC: 0.642955 cumulative IPC: 0.638556 (Simulation time: 0 hr 8 min 7 sec) 
*** Reached end of trace: /gpfs/projects/bsc18/MN4/bsc18/romol/ChampSim/traces/qualcomm_srv/srv228_ap.champsimtrace.xz
Heartbeat CPU 0 instructions: 110000000 cycles: 106883051 heartbeat IPC: 0.621858 cumulative IPC: 0.635711 (Simulation time: 0 hr 9 min 8 sec) 
Heartbeat CPU 0 instructions: 120000000 cycles: 122746174 heartbeat IPC: 0.630393 cumulative IPC: 0.634946 (Simulation time: 0 hr 10 min 9 sec) 
Heartbeat CPU 0 instructions: 130000004 cycles: 137499831 heartbeat IPC: 0.677799 cumulative IPC: 0.640004 (Simulation time: 0 hr 11 min 9 sec) 
Heartbeat CPU 0 instructions: 140000001 cycles: 153543845 heartbeat IPC: 0.623286 cumulative IPC: 0.638102 (Simulation time: 0 hr 12 min 11 sec) 
Heartbeat CPU 0 instructions: 150000000 cycles: 168603736 heartbeat IPC: 0.664016 cumulative IPC: 0.640602 (Simulation time: 0 hr 13 min 11 sec) 
Simulation finished CPU 0 instructions: 100000001 cycles: 156103305 cumulative IPC: 0.640602 (Simulation time: 0 hr 13 min 11 sec) 

Simulation complete CPU 0 instructions: 100000001 cycles: 156103305 (Simulation time: 0 hr 13 min 11 sec) 


ChampSim completed all CPUs

Saving instructions large page distribution to /home/bsc/bsc018186/scratch/itp_asplos25_AE/dump/srv228_ap.pdst...
Saving data large page distribution to /home/bsc/bsc018186/scratch/itp_asplos25_AE/dump/srv228_ap.pdst...
=== Simulation ===
CPU 0 runs /gpfs/projects/bsc18/MN4/bsc18/romol/ChampSim/traces/qualcomm_srv/srv228_ap.champsimtrace.xz

Region of Interest Statistics

CPU 0 cumulative IPC: 0.640602 instructions: 100000001 cycles: 156103305
CPU 0 Branch Prediction Accuracy: 82.6742% MPKI: 30.9851 Average ROB Occupancy at Mispredict: 12.4679
Branch type MPKI
BRANCH_DIRECT_JUMP: 1.06741
BRANCH_INDIRECT: 15.7828
BRANCH_CONDITIONAL: 10.2852
BRANCH_DIRECT_CALL: 1.93595
BRANCH_INDIRECT_CALL: 0.52536
BRANCH_RETURN: 1.38839

Instructions large pages: 0
Instructions small pages: 10544
Large page distribution for instructions: 0%

Data large pages: 0
Data small pages: 9583
Large page distribution for data: 0%

cpu0_L1I TOTAL       ACCESS:   35096929  HIT:   27230429  MISS:    7866500  iACCESS:   35096929  iHIT:   27230429  iMISS:    7866500  dACCESS:          0  dHIT:          0  dMISS:          0  itACCESS:          0  itHIT:          0  itMISS:          0  dtACCESS:          0  dtHIT:          0  dtMISS:          0
cpu0_L1I LOAD         ACCESS:   10298718  HIT:    8091143  MISS:    2207575  iACCESS:   10298718  iHIT:    8091143  iMISS:    2207575  dACCESS:          0  dHIT:          0  dMISS:          0  itACCESS:          0  itHIT:          0  itMISS:          0  dtACCESS:          0  dtHIT:          0  dtMISS:          0
cpu0_L1I RFO          ACCESS:          0  HIT:          0  MISS:          0  iACCESS:          0  iHIT:          0  iMISS:          0  dACCESS:          0  dHIT:          0  dMISS:          0  itACCESS:          0  itHIT:          0  itMISS:          0  dtACCESS:          0  dtHIT:          0  dtMISS:          0
cpu0_L1I PREFETCH     ACCESS:   24798211  HIT:   19139286  MISS:    5658925  iACCESS:   24798211  iHIT:   19139286  iMISS:    5658925  dACCESS:          0  dHIT:          0  dMISS:          0  itACCESS:          0  itHIT:          0  itMISS:          0  dtACCESS:          0  dtHIT:          0  dtMISS:          0
cpu0_L1I WRITE        ACCESS:          0  HIT:          0  MISS:          0  iACCESS:          0  iHIT:          0  iMISS:          0  dACCESS:          0  dHIT:          0  dMISS:          0  itACCESS:          0  itHIT:          0  itMISS:          0  dtACCESS:          0  dtHIT:          0  dtMISS:          0
cpu0_L1I TRANSLATION  ACCESS:          0  HIT:          0  MISS:          0  iACCESS:          0  iHIT:          0  iMISS:          0  dACCESS:          0  dHIT:          0  dMISS:          0  itACCESS:          0  itHIT:          0  itMISS:          0  dtACCESS:          0  dtHIT:          0  dtMISS:          0
cpu0_L1I PREFETCH  REQUESTED:   27334246  ISSUED:   27334242  CROSSED:          0  USEFUL:    1942692  USELESS:     630788
cpu0_L1I AVERAGE iMISS LATENCY: 13.0546 cycles
cpu0_L1I AVERAGE dMISS LATENCY: 0 cycles
cpu0_L1I AVERAGE itMISS LATENCY: 0 cycles
cpu0_L1I AVERAGE dtMISS LATENCY: 0 cycles
cpu0_L1I PAGE CROSSINGS (TLB HIT):         0 
cpu0_L1I PAGE CROSSINGS (TLB MISS):         0 
cpu0_L1I AVERAGE MISS LATENCY: 13.0546 cycles
cpu0_ITLB TOTAL       ACCESS:   29328642  HIT:   27375527  MISS:    1953115  iACCESS:   29328642  iHIT:   27375527  iMISS:    1953115  dACCESS:          0  dHIT:          0  dMISS:          0  itACCESS:          0  itHIT:          0  itMISS:          0  dtACCESS:          0  dtHIT:          0  dtMISS:          0
cpu0_ITLB LOAD         ACCESS:   29328642  HIT:   27375527  MISS:    1953115  iACCESS:   29328642  iHIT:   27375527  iMISS:    1953115  dACCESS:          0  dHIT:          0  dMISS:          0  itACCESS:          0  itHIT:          0  itMISS:          0  dtACCESS:          0  dtHIT:          0  dtMISS:          0
cpu0_ITLB RFO          ACCESS:          0  HIT:          0  MISS:          0  iACCESS:          0  iHIT:          0  iMISS:          0  dACCESS:          0  dHIT:          0  dMISS:          0  itACCESS:          0  itHIT:          0  itMISS:          0  dtACCESS:          0  dtHIT:          0  dtMISS:          0
cpu0_ITLB PREFETCH     ACCESS:          0  HIT:          0  MISS:          0  iACCESS:          0  iHIT:          0  iMISS:          0  dACCESS:          0  dHIT:          0  dMISS:          0  itACCESS:          0  itHIT:          0  itMISS:          0  dtACCESS:          0  dtHIT:          0  dtMISS:          0
cpu0_ITLB WRITE        ACCESS:          0  HIT:          0  MISS:          0  iACCESS:          0  iHIT:          0  iMISS:          0  dACCESS:          0  dHIT:          0  dMISS:          0  itACCESS:          0  itHIT:          0  itMISS:          0  dtACCESS:          0  dtHIT:          0  dtMISS:          0
cpu0_ITLB TRANSLATION  ACCESS:          0  HIT:          0  MISS:          0  iACCESS:          0  iHIT:          0  iMISS:          0  dACCESS:          0  dHIT:          0  dMISS:          0  itACCESS:          0  itHIT:          0  itMISS:          0  dtACCESS:          0  dtHIT:          0  dtMISS:          0
cpu0_ITLB PREFETCH  REQUESTED:          0  ISSUED:          0  CROSSED:          0  USEFUL:     317693  USELESS:      64886
cpu0_ITLB AVERAGE iMISS LATENCY: 5.32854 cycles
cpu0_ITLB AVERAGE dMISS LATENCY: 0 cycles
cpu0_ITLB AVERAGE itMISS LATENCY: 0 cycles
cpu0_ITLB AVERAGE dtMISS LATENCY: 0 cycles
cpu0_ITLB PAGE CROSSINGS (TLB HIT):         0 
cpu0_ITLB PAGE CROSSINGS (TLB MISS):         0 
cpu0_ITLB AVERAGE MISS LATENCY: 5.32854 cycles
cpu0_DTLB TOTAL       ACCESS:   27731720  HIT:   25615015  MISS:    2116705  iACCESS:          0  iHIT:          0  iMISS:          0  dACCESS:   27731720  dHIT:   25615015  dMISS:    2116705  itACCESS:          0  itHIT:          0  itMISS:          0  dtACCESS:          0  dtHIT:          0  dtMISS:          0
cpu0_DTLB LOAD         ACCESS:   27731720  HIT:   25615015  MISS:    2116705  iACCESS:          0  iHIT:          0  iMISS:          0  dACCESS:   27731720  dHIT:   25615015  dMISS:    2116705  itACCESS:          0  itHIT:          0  itMISS:          0  dtACCESS:          0  dtHIT:          0  dtMISS:          0
cpu0_DTLB RFO          ACCESS:          0  HIT:          0  MISS:          0  iACCESS:          0  iHIT:          0  iMISS:          0  dACCESS:          0  dHIT:          0  dMISS:          0  itACCESS:          0  itHIT:          0  itMISS:          0  dtACCESS:          0  dtHIT:          0  dtMISS:          0
cpu0_DTLB PREFETCH     ACCESS:          0  HIT:          0  MISS:          0  iACCESS:          0  iHIT:          0  iMISS:          0  dACCESS:          0  dHIT:          0  dMISS:          0  itACCESS:          0  itHIT:          0  itMISS:          0  dtACCESS:          0  dtHIT:          0  dtMISS:          0
cpu0_DTLB WRITE        ACCESS:          0  HIT:          0  MISS:          0  iACCESS:          0  iHIT:          0  iMISS:          0  dACCESS:          0  dHIT:          0  dMISS:          0  itACCESS:          0  itHIT:          0  itMISS:          0  dtACCESS:          0  dtHIT:          0  dtMISS:          0
cpu0_DTLB TRANSLATION  ACCESS:          0  HIT:          0  MISS:          0  iACCESS:          0  iHIT:          0  iMISS:          0  dACCESS:          0  dHIT:          0  dMISS:          0  itACCESS:          0  itHIT:          0  itMISS:          0  dtACCESS:          0  dtHIT:          0  dtMISS:          0
cpu0_DTLB PREFETCH  REQUESTED:          0  ISSUED:          0  CROSSED:          0  USEFUL:          0  USELESS:          0
cpu0_DTLB AVERAGE iMISS LATENCY: 0 cycles
cpu0_DTLB AVERAGE dMISS LATENCY: 14.4929 cycles
cpu0_DTLB AVERAGE itMISS LATENCY: 0 cycles
cpu0_DTLB AVERAGE dtMISS LATENCY: 0 cycles
cpu0_DTLB PAGE CROSSINGS (TLB HIT):         0 
cpu0_DTLB PAGE CROSSINGS (TLB MISS):         0 
cpu0_DTLB AVERAGE MISS LATENCY: 14.4929 cycles
cpu0_STLB TOTAL       ACCESS:    1638901  HIT:    1466322  MISS:     172579  iACCESS:     382582  iHIT:     322135  iMISS:      60447  dACCESS:    1256319  dHIT:    1144187  dMISS:     112132  itACCESS:          0  itHIT:          0  itMISS:          0  dtACCESS:          0  dtHIT:          0  dtMISS:          0
cpu0_STLB LOAD         ACCESS:    1638901  HIT:    1466322  MISS:     172579  iACCESS:     382582  iHIT:     322135  iMISS:      60447  dACCESS:    1256319  dHIT:    1144187  dMISS:     112132  itACCESS:          0  itHIT:          0  itMISS:          0  dtACCESS:          0  dtHIT:          0  dtMISS:          0
cpu0_STLB RFO          ACCESS:          0  HIT:          0  MISS:          0  iACCESS:          0  iHIT:          0  iMISS:          0  dACCESS:          0  dHIT:          0  dMISS:          0  itACCESS:          0  itHIT:          0  itMISS:          0  dtACCESS:          0  dtHIT:          0  dtMISS:          0
cpu0_STLB PREFETCH     ACCESS:          0  HIT:          0  MISS:          0  iACCESS:          0  iHIT:          0  iMISS:          0  dACCESS:          0  dHIT:          0  dMISS:          0  itACCESS:          0  itHIT:          0  itMISS:          0  dtACCESS:          0  dtHIT:          0  dtMISS:          0
cpu0_STLB WRITE        ACCESS:          0  HIT:          0  MISS:          0  iACCESS:          0  iHIT:          0  iMISS:          0  dACCESS:          0  dHIT:          0  dMISS:          0  itACCESS:          0  itHIT:          0  itMISS:          0  dtACCESS:          0  dtHIT:          0  dtMISS:          0
cpu0_STLB TRANSLATION  ACCESS:          0  HIT:          0  MISS:          0  iACCESS:          0  iHIT:          0  iMISS:          0  dACCESS:          0  dHIT:          0  dMISS:          0  itACCESS:          0  itHIT:          0  itMISS:          0  dtACCESS:          0  dtHIT:          0  dtMISS:          0
cpu0_STLB PREFETCH  REQUESTED:          0  ISSUED:          0  CROSSED:          0  USEFUL:          0  USELESS:          0
cpu0_STLB AVERAGE iMISS LATENCY: 42.7703 cycles
cpu0_STLB AVERAGE dMISS LATENCY: 119.737 cycles
cpu0_STLB AVERAGE itMISS LATENCY: 0 cycles
cpu0_STLB AVERAGE dtMISS LATENCY: 0 cycles
cpu0_STLB PAGE CROSSINGS (TLB HIT):         0 
cpu0_STLB PAGE CROSSINGS (TLB MISS):         0 
cpu0_STLB AVERAGE MISS LATENCY: 162.508 cycles
cpu0_L1D TOTAL       ACCESS:   41534607  HIT:   38072692  MISS:    3461915  iACCESS:          0  iHIT:          0  iMISS:          0  dACCESS:   41298631  dHIT:   38051765  dMISS:    3246866  itACCESS:      65545  itHIT:       9536  itMISS:      56009  dtACCESS:     170431  dtHIT:      11391  dtMISS:     159040
cpu0_L1D LOAD         ACCESS:   18930525  HIT:   17444635  MISS:    1485890  iACCESS:          0  iHIT:          0  iMISS:          0  dACCESS:   18930525  dHIT:   17444635  dMISS:    1485890  itACCESS:          0  itHIT:          0  itMISS:          0  dtACCESS:          0  dtHIT:          0  dtMISS:          0
cpu0_L1D RFO          ACCESS:          0  HIT:          0  MISS:          0  iACCESS:          0  iHIT:          0  iMISS:          0  dACCESS:          0  dHIT:          0  dMISS:          0  itACCESS:          0  itHIT:          0  itMISS:          0  dtACCESS:          0  dtHIT:          0  dtMISS:          0
cpu0_L1D PREFETCH     ACCESS:   12187413  HIT:   10858462  MISS:    1328951  iACCESS:          0  iHIT:          0  iMISS:          0  dACCESS:   12187413  dHIT:   10858462  dMISS:    1328951  itACCESS:          0  itHIT:          0  itMISS:          0  dtACCESS:          0  dtHIT:          0  dtMISS:          0
cpu0_L1D WRITE        ACCESS:   10180693  HIT:    9748668  MISS:     432025  iACCESS:          0  iHIT:          0  iMISS:          0  dACCESS:   10180693  dHIT:    9748668  dMISS:     432025  itACCESS:          0  itHIT:          0  itMISS:          0  dtACCESS:          0  dtHIT:          0  dtMISS:          0
cpu0_L1D TRANSLATION  ACCESS:     235976  HIT:      20927  MISS:     215049  iACCESS:          0  iHIT:          0  iMISS:          0  dACCESS:          0  dHIT:          0  dMISS:          0  itACCESS:      65545  itHIT:       9536  itMISS:      56009  dtACCESS:     170431  dtHIT:      11391  dtMISS:     159040
cpu0_L1D PREFETCH  REQUESTED:   18930525  ISSUED:   17054382  CROSSED:          0  USEFUL:     306023  USELESS:     709042
cpu0_L1D AVERAGE iMISS LATENCY: 0 cycles
cpu0_L1D AVERAGE dMISS LATENCY: 33.2661 cycles
cpu0_L1D AVERAGE itMISS LATENCY: 1.98128 cycles
cpu0_L1D AVERAGE dtMISS LATENCY: 5.28122 cycles
cpu0_L1D PAGE CROSSINGS (TLB HIT):         0 
cpu0_L1D PAGE CROSSINGS (TLB MISS):         0 
cpu0_L1D AVERAGE MISS LATENCY: 40.5286 cycles
cpu0_L2C TOTAL       ACCESS:    7048249  HIT:    4059087  MISS:    2989162  iACCESS:    3321195  iHIT:    2201554  iMISS:    1119641  dACCESS:    3523842  dHIT:    1827247  dMISS:    1696595  itACCESS:      56009  itHIT:       9741  itMISS:      46268  dtACCESS:     147203  dtHIT:      20545  dtMISS:     126658
cpu0_L2C LOAD         ACCESS:    1726538  HIT:    1034097  MISS:     692441  iACCESS:     788067  iHIT:     547333  iMISS:     240734  dACCESS:     938471  dHIT:     486764  dMISS:     451707  itACCESS:          0  itHIT:          0  itMISS:          0  dtACCESS:          0  dtHIT:          0  dtMISS:          0
cpu0_L2C RFO          ACCESS:     159076  HIT:      72790  MISS:      86286  iACCESS:          0  iHIT:          0  iMISS:          0  dACCESS:     159076  dHIT:      72790  dMISS:      86286  itACCESS:          0  itHIT:          0  itMISS:          0  dtACCESS:          0  dtHIT:          0  dtMISS:          0
cpu0_L2C PREFETCH     ACCESS:    4675591  HIT:    2639091  MISS:    2036500  iACCESS:    2533128  iHIT:    1654221  iMISS:     878907  dACCESS:    2142463  dHIT:     984870  dMISS:    1157593  itACCESS:          0  itHIT:          0  itMISS:          0  dtACCESS:          0  dtHIT:          0  dtMISS:          0
cpu0_L2C WRITE        ACCESS:     283832  HIT:     282823  MISS:       1009  iACCESS:          0  iHIT:          0  iMISS:          0  dACCESS:     283832  dHIT:     282823  dMISS:       1009  itACCESS:          0  itHIT:          0  itMISS:          0  dtACCESS:          0  dtHIT:          0  dtMISS:          0
cpu0_L2C TRANSLATION  ACCESS:     203212  HIT:      30286  MISS:     172926  iACCESS:          0  iHIT:          0  iMISS:          0  dACCESS:          0  dHIT:          0  dMISS:          0  itACCESS:      56009  itHIT:       9741  itMISS:      46268  dtACCESS:     147203  dtHIT:      20545  dtMISS:     126658
cpu0_L2C PREFETCH  REQUESTED:    1385683  ISSUED:    1385683  CROSSED:          0  USEFUL:     331664  USELESS:     241538
cpu0_L2C AVERAGE iMISS LATENCY: 24.2159 cycles
cpu0_L2C AVERAGE dMISS LATENCY: 45.5209 cycles
cpu0_L2C AVERAGE itMISS LATENCY: 2.11001 cycles
cpu0_L2C AVERAGE dtMISS LATENCY: 5.62699 cycles
cpu0_L2C PAGE CROSSINGS (TLB HIT):         0 
cpu0_L2C PAGE CROSSINGS (TLB MISS):         0 
cpu0_L2C AVERAGE MISS LATENCY: 77.4737 cycles
LLC TOTAL       ACCESS:    3010665  HIT:    1903526  MISS:    1107139  iACCESS:    1063639  iHIT:     714985  iMISS:     348654  dACCESS:    1774100  dHIT:    1127172  dMISS:     646928  itACCESS:      46268  itHIT:      14846  itMISS:      31422  dtACCESS:     126658  dtHIT:      46523  dtMISS:      80135
LLC LOAD         ACCESS:     690677  HIT:     451315  MISS:     239362  iACCESS:     239314  iHIT:     161546  iMISS:      77768  dACCESS:     451363  dHIT:     289769  dMISS:     161594  itACCESS:          0  itHIT:          0  itMISS:          0  dtACCESS:          0  dtHIT:          0  dtMISS:          0
LLC RFO          ACCESS:      86284  HIT:      46210  MISS:      40074  iACCESS:          0  iHIT:          0  iMISS:          0  dACCESS:      86284  dHIT:      46210  dMISS:      40074  itACCESS:          0  itHIT:          0  itMISS:          0  dtACCESS:          0  dtHIT:          0  dtMISS:          0
LLC PREFETCH     ACCESS:    1927898  HIT:    1217516  MISS:     710382  iACCESS:     824325  iHIT:     553439  iMISS:     270886  dACCESS:    1103573  dHIT:     664077  dMISS:     439496  itACCESS:          0  itHIT:          0  itMISS:          0  dtACCESS:          0  dtHIT:          0  dtMISS:          0
LLC WRITE        ACCESS:     132880  HIT:     127116  MISS:       5764  iACCESS:          0  iHIT:          0  iMISS:          0  dACCESS:     132880  dHIT:     127116  dMISS:       5764  itACCESS:          0  itHIT:          0  itMISS:          0  dtACCESS:          0  dtHIT:          0  dtMISS:          0
LLC TRANSLATION  ACCESS:     172926  HIT:      61369  MISS:     111557  iACCESS:          0  iHIT:          0  iMISS:          0  dACCESS:          0  dHIT:          0  dMISS:          0  itACCESS:      46268  itHIT:      14846  itMISS:      31422  dtACCESS:     126658  dtHIT:      46523  dtMISS:      80135
LLC PREFETCH  REQUESTED:          0  ISSUED:          0  CROSSED:          0  USEFUL:          0  USELESS:          0
LLC AVERAGE iMISS LATENCY: 46.6921 cycles
LLC AVERAGE dMISS LATENCY: 94.1771 cycles
LLC AVERAGE itMISS LATENCY: 4.87648 cycles
LLC AVERAGE dtMISS LATENCY: 12.9528 cycles
LLC PAGE CROSSINGS (TLB HIT):         0 
LLC PAGE CROSSINGS (TLB MISS):         0 
LLC AVERAGE MISS LATENCY: 158.699 cycles

PageTableWalker TOTAL       ACCESS:      85965  
PageTableWalker AVERAGE LATENCY: 5.21414 cycles
PageTableWalker TOTAL LATENCY: 448233 cycles

DRAM Statistics
Channel 0
 RQ ROW_BUFFER_HIT:     280182
  ROW_BUFFER_MISS:     821128
 AVG DBUS CONGESTED CYCLE:    3.61709
 WQ ROW_BUFFER_HIT:      21524
  ROW_BUFFER_MISS:      20746  FULL:          0

