last_page:0x200000000000000
VMEM_RES_CAP:0x100000
PAGE_SIZE:4096
LOG2_PAGE_SIZE:12
LOG2_PAGE_TABLE_SIZE:9
page_table_levels:5
WARNING: physical memory size is smaller than virtual memory size
FDiP enabled with aggresivity 16

*** ChampSim Multicore Out-of-Order Simulator ***

Warmup Instructions: 50000000
Simulation Instructions: 100000000
Number of CPUs: 1
Small page size: 4096
Large page size: 2097152

CPU 0 Bimodal branch predictor
Basic BTB sets: 1024 ways: 8 indirect buffer size: 4096 RAS size: 64
Instruction page size distrubution: 0
Loading instruction page size distribution from /home/bsc/bsc018186/scratch/itp_asplos25_AE/dump/srv259_ap.pdst
Data page size distrubution: 0
Loading data page size distribution from /home/bsc/bsc018186/scratch/itp_asplos25_AE/dump/srv259_ap.pdst
cpu0_L2C IP-based stride prefetcher
cpu0_L2C is using xPTP/LRU
	TLB_LOWER_STRESS_THRESHOLD:1
	TLB_UPPER_STRESS_THRESHOLD:9
	MIN_EVICTION_POSITION:4
cpu0_L1D next line prefetcher
cpu0_STLB using iTP with max lru@8
cpu0_STLB using iTP with instr@0 and data@2
Init sat counter with 3 bits (max:50).
cpu0_L1I next line prefetcher
Off-chip DRAM Size: 4 GiB Channels: 1 Width: 64-bit Data Rate: 3200 MT/s
Heartbeat CPU 0 instructions: 10000001 cycles: 2500155 heartbeat IPC: 3.99976 cumulative IPC: 3.99976 (Simulation time: 0 hr 0 min 44 sec) 
Heartbeat CPU 0 instructions: 20000002 cycles: 5000166 heartbeat IPC: 3.99999 cumulative IPC: 3.99987 (Simulation time: 0 hr 1 min 30 sec) 
Heartbeat CPU 0 instructions: 30000000 cycles: 7500326 heartbeat IPC: 3.99975 cumulative IPC: 3.99983 (Simulation time: 0 hr 2 min 14 sec) 
Heartbeat CPU 0 instructions: 40000003 cycles: 10000418 heartbeat IPC: 3.99986 cumulative IPC: 3.99984 (Simulation time: 0 hr 3 min 0 sec) 
Heartbeat CPU 0 instructions: 50000000 cycles: 12500474 heartbeat IPC: 3.99991 cumulative IPC: 3.99985 (Simulation time: 0 hr 3 min 48 sec) 
Warmup finished CPU 0 instructions: 50000000 cycles: 12500475 cumulative IPC: 3.99985 (Simulation time: 0 hr 3 min 48 sec) 

Warmup complete CPU 0 instructions: 50000000 cycles: 12500475 (Simulation time: 0 hr 3 min 48 sec) 

Heartbeat CPU 0 instructions: 60000002 cycles: 29927341 heartbeat IPC: 0.573827 cumulative IPC: 0.573827 (Simulation time: 0 hr 5 min 6 sec) 
Heartbeat CPU 0 instructions: 70000000 cycles: 47354908 heartbeat IPC: 0.573804 cumulative IPC: 0.573816 (Simulation time: 0 hr 6 min 23 sec) 
Heartbeat CPU 0 instructions: 80000000 cycles: 64612059 heartbeat IPC: 0.57947 cumulative IPC: 0.575688 (Simulation time: 0 hr 7 min 40 sec) 
Heartbeat CPU 0 instructions: 90000001 cycles: 81696693 heartbeat IPC: 0.585322 cumulative IPC: 0.578067 (Simulation time: 0 hr 8 min 58 sec) 
Heartbeat CPU 0 instructions: 100000004 cycles: 98286353 heartbeat IPC: 0.602786 cumulative IPC: 0.582847 (Simulation time: 0 hr 10 min 16 sec) 
*** Reached end of trace: /gpfs/projects/bsc18/MN4/bsc18/romol/ChampSim/traces/qualcomm_srv/srv259_ap.champsimtrace.xz
Heartbeat CPU 0 instructions: 110000000 cycles: 115146480 heartbeat IPC: 0.593116 cumulative IPC: 0.584534 (Simulation time: 0 hr 11 min 29 sec) 
Heartbeat CPU 0 instructions: 120000000 cycles: 131855091 heartbeat IPC: 0.598494 cumulative IPC: 0.586488 (Simulation time: 0 hr 12 min 47 sec) 
Heartbeat CPU 0 instructions: 130000001 cycles: 149666669 heartbeat IPC: 0.561433 cumulative IPC: 0.583235 (Simulation time: 0 hr 14 min 4 sec) 
Heartbeat CPU 0 instructions: 140000001 cycles: 167476314 heartbeat IPC: 0.561494 cumulative IPC: 0.580736 (Simulation time: 0 hr 15 min 16 sec) 
Heartbeat CPU 0 instructions: 150000002 cycles: 185157348 heartbeat IPC: 0.565578 cumulative IPC: 0.579184 (Simulation time: 0 hr 16 min 30 sec) 
Simulation finished CPU 0 instructions: 100000002 cycles: 172656874 cumulative IPC: 0.579184 (Simulation time: 0 hr 16 min 30 sec) 

Simulation complete CPU 0 instructions: 100000002 cycles: 172656874 (Simulation time: 0 hr 16 min 30 sec) 


ChampSim completed all CPUs

Saving instructions large page distribution to /home/bsc/bsc018186/scratch/itp_asplos25_AE/dump/srv259_ap.pdst...
Saving data large page distribution to /home/bsc/bsc018186/scratch/itp_asplos25_AE/dump/srv259_ap.pdst...
=== Simulation ===
CPU 0 runs /gpfs/projects/bsc18/MN4/bsc18/romol/ChampSim/traces/qualcomm_srv/srv259_ap.champsimtrace.xz

Region of Interest Statistics

CPU 0 cumulative IPC: 0.579184 instructions: 100000002 cycles: 172656874
CPU 0 Branch Prediction Accuracy: 80.0357% MPKI: 36.016 Average ROB Occupancy at Mispredict: 10.4353
Branch type MPKI
BRANCH_DIRECT_JUMP: 1.37518
BRANCH_INDIRECT: 17.8918
BRANCH_CONDITIONAL: 11.6991
BRANCH_DIRECT_CALL: 2.60436
BRANCH_INDIRECT_CALL: 0.6686
BRANCH_RETURN: 1.77705

Instructions large pages: 0
Instructions small pages: 1161
Large page distribution for instructions: 0%

Data large pages: 0
Data small pages: 4752
Large page distribution for data: 0%

cpu0_L1I TOTAL       ACCESS:   36049297  HIT:   28055989  MISS:    7993308  iACCESS:   36049297  iHIT:   28055989  iMISS:    7993308  dACCESS:          0  dHIT:          0  dMISS:          0  itACCESS:          0  itHIT:          0  itMISS:          0  dtACCESS:          0  dtHIT:          0  dtMISS:          0
cpu0_L1I LOAD         ACCESS:   10518144  HIT:    8341654  MISS:    2176490  iACCESS:   10518144  iHIT:    8341654  iMISS:    2176490  dACCESS:          0  dHIT:          0  dMISS:          0  itACCESS:          0  itHIT:          0  itMISS:          0  dtACCESS:          0  dtHIT:          0  dtMISS:          0
cpu0_L1I RFO          ACCESS:          0  HIT:          0  MISS:          0  iACCESS:          0  iHIT:          0  iMISS:          0  dACCESS:          0  dHIT:          0  dMISS:          0  itACCESS:          0  itHIT:          0  itMISS:          0  dtACCESS:          0  dtHIT:          0  dtMISS:          0
cpu0_L1I PREFETCH     ACCESS:   25531153  HIT:   19714335  MISS:    5816818  iACCESS:   25531153  iHIT:   19714335  iMISS:    5816818  dACCESS:          0  dHIT:          0  dMISS:          0  itACCESS:          0  itHIT:          0  itMISS:          0  dtACCESS:          0  dtHIT:          0  dtMISS:          0
cpu0_L1I WRITE        ACCESS:          0  HIT:          0  MISS:          0  iACCESS:          0  iHIT:          0  iMISS:          0  dACCESS:          0  dHIT:          0  dMISS:          0  itACCESS:          0  itHIT:          0  itMISS:          0  dtACCESS:          0  dtHIT:          0  dtMISS:          0
cpu0_L1I TRANSLATION  ACCESS:          0  HIT:          0  MISS:          0  iACCESS:          0  iHIT:          0  iMISS:          0  dACCESS:          0  dHIT:          0  dMISS:          0  itACCESS:          0  itHIT:          0  itMISS:          0  dtACCESS:          0  dtHIT:          0  dtMISS:          0
cpu0_L1I PREFETCH  REQUESTED:   27990110  ISSUED:   27989887  CROSSED:          0  USEFUL:    1994423  USELESS:     640047
cpu0_L1I AVERAGE iMISS LATENCY: 16.7648 cycles
cpu0_L1I AVERAGE dMISS LATENCY: 0 cycles
cpu0_L1I AVERAGE itMISS LATENCY: 0 cycles
cpu0_L1I AVERAGE dtMISS LATENCY: 0 cycles
cpu0_L1I PAGE CROSSINGS (TLB HIT):         0 
cpu0_L1I PAGE CROSSINGS (TLB MISS):         0 
cpu0_L1I AVERAGE MISS LATENCY: 16.7648 cycles
cpu0_ITLB TOTAL       ACCESS:   30189584  HIT:   28294799  MISS:    1894785  iACCESS:   30189584  iHIT:   28294799  iMISS:    1894785  dACCESS:          0  dHIT:          0  dMISS:          0  itACCESS:          0  itHIT:          0  itMISS:          0  dtACCESS:          0  dtHIT:          0  dtMISS:          0
cpu0_ITLB LOAD         ACCESS:   30189584  HIT:   28294799  MISS:    1894785  iACCESS:   30189584  iHIT:   28294799  iMISS:    1894785  dACCESS:          0  dHIT:          0  dMISS:          0  itACCESS:          0  itHIT:          0  itMISS:          0  dtACCESS:          0  dtHIT:          0  dtMISS:          0
cpu0_ITLB RFO          ACCESS:          0  HIT:          0  MISS:          0  iACCESS:          0  iHIT:          0  iMISS:          0  dACCESS:          0  dHIT:          0  dMISS:          0  itACCESS:          0  itHIT:          0  itMISS:          0  dtACCESS:          0  dtHIT:          0  dtMISS:          0
cpu0_ITLB PREFETCH     ACCESS:          0  HIT:          0  MISS:          0  iACCESS:          0  iHIT:          0  iMISS:          0  dACCESS:          0  dHIT:          0  dMISS:          0  itACCESS:          0  itHIT:          0  itMISS:          0  dtACCESS:          0  dtHIT:          0  dtMISS:          0
cpu0_ITLB WRITE        ACCESS:          0  HIT:          0  MISS:          0  iACCESS:          0  iHIT:          0  iMISS:          0  dACCESS:          0  dHIT:          0  dMISS:          0  itACCESS:          0  itHIT:          0  itMISS:          0  dtACCESS:          0  dtHIT:          0  dtMISS:          0
cpu0_ITLB TRANSLATION  ACCESS:          0  HIT:          0  MISS:          0  iACCESS:          0  iHIT:          0  iMISS:          0  dACCESS:          0  dHIT:          0  dMISS:          0  itACCESS:          0  itHIT:          0  itMISS:          0  dtACCESS:          0  dtHIT:          0  dtMISS:          0
cpu0_ITLB PREFETCH  REQUESTED:          0  ISSUED:          0  CROSSED:          0  USEFUL:     324675  USELESS:      63699
cpu0_ITLB AVERAGE iMISS LATENCY: 3.30934 cycles
cpu0_ITLB AVERAGE dMISS LATENCY: 0 cycles
cpu0_ITLB AVERAGE itMISS LATENCY: 0 cycles
cpu0_ITLB AVERAGE dtMISS LATENCY: 0 cycles
cpu0_ITLB PAGE CROSSINGS (TLB HIT):         0 
cpu0_ITLB PAGE CROSSINGS (TLB MISS):         0 
cpu0_ITLB AVERAGE MISS LATENCY: 3.30934 cycles
cpu0_DTLB TOTAL       ACCESS:   27899251  HIT:   25905253  MISS:    1993998  iACCESS:          0  iHIT:          0  iMISS:          0  dACCESS:   27899251  dHIT:   25905253  dMISS:    1993998  itACCESS:          0  itHIT:          0  itMISS:          0  dtACCESS:          0  dtHIT:          0  dtMISS:          0
cpu0_DTLB LOAD         ACCESS:   27899251  HIT:   25905253  MISS:    1993998  iACCESS:          0  iHIT:          0  iMISS:          0  dACCESS:   27899251  dHIT:   25905253  dMISS:    1993998  itACCESS:          0  itHIT:          0  itMISS:          0  dtACCESS:          0  dtHIT:          0  dtMISS:          0
cpu0_DTLB RFO          ACCESS:          0  HIT:          0  MISS:          0  iACCESS:          0  iHIT:          0  iMISS:          0  dACCESS:          0  dHIT:          0  dMISS:          0  itACCESS:          0  itHIT:          0  itMISS:          0  dtACCESS:          0  dtHIT:          0  dtMISS:          0
cpu0_DTLB PREFETCH     ACCESS:          0  HIT:          0  MISS:          0  iACCESS:          0  iHIT:          0  iMISS:          0  dACCESS:          0  dHIT:          0  dMISS:          0  itACCESS:          0  itHIT:          0  itMISS:          0  dtACCESS:          0  dtHIT:          0  dtMISS:          0
cpu0_DTLB WRITE        ACCESS:          0  HIT:          0  MISS:          0  iACCESS:          0  iHIT:          0  iMISS:          0  dACCESS:          0  dHIT:          0  dMISS:          0  itACCESS:          0  itHIT:          0  itMISS:          0  dtACCESS:          0  dtHIT:          0  dtMISS:          0
cpu0_DTLB TRANSLATION  ACCESS:          0  HIT:          0  MISS:          0  iACCESS:          0  iHIT:          0  iMISS:          0  dACCESS:          0  dHIT:          0  dMISS:          0  itACCESS:          0  itHIT:          0  itMISS:          0  dtACCESS:          0  dtHIT:          0  dtMISS:          0
cpu0_DTLB PREFETCH  REQUESTED:          0  ISSUED:          0  CROSSED:          0  USEFUL:          0  USELESS:          0
cpu0_DTLB AVERAGE iMISS LATENCY: 0 cycles
cpu0_DTLB AVERAGE dMISS LATENCY: 12.9578 cycles
cpu0_DTLB AVERAGE itMISS LATENCY: 0 cycles
cpu0_DTLB AVERAGE dtMISS LATENCY: 0 cycles
cpu0_DTLB PAGE CROSSINGS (TLB HIT):         0 
cpu0_DTLB PAGE CROSSINGS (TLB MISS):         0 
cpu0_DTLB AVERAGE MISS LATENCY: 12.9578 cycles
cpu0_STLB TOTAL       ACCESS:    1602703  HIT:    1391577  MISS:     211126  iACCESS:     388380  iHIT:     359480  iMISS:      28900  dACCESS:    1214323  dHIT:    1032097  dMISS:     182226  itACCESS:          0  itHIT:          0  itMISS:          0  dtACCESS:          0  dtHIT:          0  dtMISS:          0
cpu0_STLB LOAD         ACCESS:    1602703  HIT:    1391577  MISS:     211126  iACCESS:     388380  iHIT:     359480  iMISS:      28900  dACCESS:    1214323  dHIT:    1032097  dMISS:     182226  itACCESS:          0  itHIT:          0  itMISS:          0  dtACCESS:          0  dtHIT:          0  dtMISS:          0
cpu0_STLB RFO          ACCESS:          0  HIT:          0  MISS:          0  iACCESS:          0  iHIT:          0  iMISS:          0  dACCESS:          0  dHIT:          0  dMISS:          0  itACCESS:          0  itHIT:          0  itMISS:          0  dtACCESS:          0  dtHIT:          0  dtMISS:          0
cpu0_STLB PREFETCH     ACCESS:          0  HIT:          0  MISS:          0  iACCESS:          0  iHIT:          0  iMISS:          0  dACCESS:          0  dHIT:          0  dMISS:          0  itACCESS:          0  itHIT:          0  itMISS:          0  dtACCESS:          0  dtHIT:          0  dtMISS:          0
cpu0_STLB WRITE        ACCESS:          0  HIT:          0  MISS:          0  iACCESS:          0  iHIT:          0  iMISS:          0  dACCESS:          0  dHIT:          0  dMISS:          0  itACCESS:          0  itHIT:          0  itMISS:          0  dtACCESS:          0  dtHIT:          0  dtMISS:          0
cpu0_STLB TRANSLATION  ACCESS:          0  HIT:          0  MISS:          0  iACCESS:          0  iHIT:          0  iMISS:          0  dACCESS:          0  dHIT:          0  dMISS:          0  itACCESS:          0  itHIT:          0  itMISS:          0  dtACCESS:          0  dtHIT:          0  dtMISS:          0
cpu0_STLB PREFETCH  REQUESTED:          0  ISSUED:          0  CROSSED:          0  USEFUL:          0  USELESS:          0
cpu0_STLB AVERAGE iMISS LATENCY: 15.3454 cycles
cpu0_STLB AVERAGE dMISS LATENCY: 76.2435 cycles
cpu0_STLB AVERAGE itMISS LATENCY: 0 cycles
cpu0_STLB AVERAGE dtMISS LATENCY: 0 cycles
cpu0_STLB PAGE CROSSINGS (TLB HIT):         0 
cpu0_STLB PAGE CROSSINGS (TLB MISS):         0 
cpu0_STLB AVERAGE MISS LATENCY: 91.5888 cycles
cpu0_L1D TOTAL       ACCESS:   42528614  HIT:   38489999  MISS:    4038615  iACCESS:          0  iHIT:          0  iMISS:          0  dACCESS:   42245428  dHIT:   38472838  dMISS:    3772590  itACCESS:      32806  itHIT:       2789  itMISS:      30017  dtACCESS:     250380  dtHIT:      14372  dtMISS:     236008
cpu0_L1D LOAD         ACCESS:   19331099  HIT:   17617692  MISS:    1713407  iACCESS:          0  iHIT:          0  iMISS:          0  dACCESS:   19331099  dHIT:   17617692  dMISS:    1713407  itACCESS:          0  itHIT:          0  itMISS:          0  dtACCESS:          0  dtHIT:          0  dtMISS:          0
cpu0_L1D RFO          ACCESS:          0  HIT:          0  MISS:          0  iACCESS:          0  iHIT:          0  iMISS:          0  dACCESS:          0  dHIT:          0  dMISS:          0  itACCESS:          0  itHIT:          0  itMISS:          0  dtACCESS:          0  dtHIT:          0  dtMISS:          0
cpu0_L1D PREFETCH     ACCESS:   12806722  HIT:   11210193  MISS:    1596529  iACCESS:          0  iHIT:          0  iMISS:          0  dACCESS:   12806722  dHIT:   11210193  dMISS:    1596529  itACCESS:          0  itHIT:          0  itMISS:          0  dtACCESS:          0  dtHIT:          0  dtMISS:          0
cpu0_L1D WRITE        ACCESS:   10107607  HIT:    9644953  MISS:     462654  iACCESS:          0  iHIT:          0  iMISS:          0  dACCESS:   10107607  dHIT:    9644953  dMISS:     462654  itACCESS:          0  itHIT:          0  itMISS:          0  dtACCESS:          0  dtHIT:          0  dtMISS:          0
cpu0_L1D TRANSLATION  ACCESS:     283186  HIT:      17161  MISS:     266025  iACCESS:          0  iHIT:          0  iMISS:          0  dACCESS:          0  dHIT:          0  dMISS:          0  itACCESS:      32806  itHIT:       2789  itMISS:      30017  dtACCESS:     250380  dtHIT:      14372  dtMISS:     236008
cpu0_L1D PREFETCH  REQUESTED:   19331099  ISSUED:   17341166  CROSSED:          0  USEFUL:     306303  USELESS:     698329
cpu0_L1D AVERAGE iMISS LATENCY: 0 cycles
cpu0_L1D AVERAGE dMISS LATENCY: 34.9714 cycles
cpu0_L1D AVERAGE itMISS LATENCY: 0.728251 cycles
cpu0_L1D AVERAGE dtMISS LATENCY: 3.40952 cycles
cpu0_L1D PAGE CROSSINGS (TLB HIT):         0 
cpu0_L1D PAGE CROSSINGS (TLB MISS):         0 
cpu0_L1D AVERAGE MISS LATENCY: 39.1091 cycles
cpu0_L2C TOTAL       ACCESS:    7239140  HIT:    2428794  MISS:    4810346  iACCESS:    3343523  iHIT:    1319778  iMISS:    2023745  dACCESS:    3634903  dHIT:     943937  dMISS:    2690966  itACCESS:      30003  itHIT:      11667  itMISS:      18336  dtACCESS:     230711  dtHIT:     153412  dtMISS:      77299
cpu0_L2C LOAD         ACCESS:    1687444  HIT:     493221  MISS:    1194223  iACCESS:     747562  iHIT:     262230  iMISS:     485332  dACCESS:     939882  dHIT:     230991  dMISS:     708891  itACCESS:          0  itHIT:          0  itMISS:          0  dtACCESS:          0  dtHIT:          0  dtMISS:          0
cpu0_L2C RFO          ACCESS:     159091  HIT:      29932  MISS:     129159  iACCESS:          0  iHIT:          0  iMISS:          0  dACCESS:     159091  dHIT:      29932  dMISS:     129159  itACCESS:          0  itHIT:          0  itMISS:          0  dtACCESS:          0  dtHIT:          0  dtMISS:          0
cpu0_L2C PREFETCH     ACCESS:    4869109  HIT:    1634619  MISS:    3234490  iACCESS:    2595961  iHIT:    1057548  iMISS:    1538413  dACCESS:    2273148  dHIT:     577071  dMISS:    1696077  itACCESS:          0  itHIT:          0  itMISS:          0  dtACCESS:          0  dtHIT:          0  dtMISS:          0
cpu0_L2C WRITE        ACCESS:     262782  HIT:     105943  MISS:     156839  iACCESS:          0  iHIT:          0  iMISS:          0  dACCESS:     262782  dHIT:     105943  dMISS:     156839  itACCESS:          0  itHIT:          0  itMISS:          0  dtACCESS:          0  dtHIT:          0  dtMISS:          0
cpu0_L2C TRANSLATION  ACCESS:     260714  HIT:     165079  MISS:      95635  iACCESS:          0  iHIT:          0  iMISS:          0  dACCESS:          0  dHIT:          0  dMISS:          0  itACCESS:      30003  itHIT:      11667  itMISS:      18336  dtACCESS:     230711  dtHIT:     153412  dtMISS:      77299
cpu0_L2C PREFETCH  REQUESTED:    1537790  ISSUED:    1537639  CROSSED:          0  USEFUL:     401001  USELESS:     389391
cpu0_L2C AVERAGE iMISS LATENCY: 21.6257 cycles
cpu0_L2C AVERAGE dMISS LATENCY: 36.9046 cycles
cpu0_L2C AVERAGE itMISS LATENCY: 0.551263 cycles
cpu0_L2C AVERAGE dtMISS LATENCY: 2.4129 cycles
cpu0_L2C PAGE CROSSINGS (TLB HIT):         0 
cpu0_L2C PAGE CROSSINGS (TLB MISS):         0 
cpu0_L2C AVERAGE MISS LATENCY: 61.4944 cycles
LLC TOTAL       ACCESS:    4682568  HIT:    3365754  MISS:    1316814  iACCESS:    1952949  iHIT:    1502872  iMISS:     450077  dACCESS:    2633984  dHIT:    1836536  dMISS:     797448  itACCESS:      18336  itHIT:       5225  itMISS:      13111  dtACCESS:      77299  dtHIT:      21121  dtMISS:      56178
LLC LOAD         ACCESS:    1187925  HIT:     905710  MISS:     282215  iACCESS:     484257  iHIT:     392364  iMISS:      91893  dACCESS:     703668  dHIT:     513346  dMISS:     190322  itACCESS:          0  itHIT:          0  itMISS:          0  dtACCESS:          0  dtHIT:          0  dtMISS:          0
LLC RFO          ACCESS:     129147  HIT:      77914  MISS:      51233  iACCESS:          0  iHIT:          0  iMISS:          0  dACCESS:     129147  dHIT:      77914  dMISS:      51233  itACCESS:          0  itHIT:          0  itMISS:          0  dtACCESS:          0  dtHIT:          0  dtMISS:          0
LLC PREFETCH     ACCESS:    3074868  HIT:    2163172  MISS:     911696  iACCESS:    1468692  iHIT:    1110508  iMISS:     358184  dACCESS:    1606176  dHIT:    1052664  dMISS:     553512  itACCESS:          0  itHIT:          0  itMISS:          0  dtACCESS:          0  dtHIT:          0  dtMISS:          0
LLC WRITE        ACCESS:     194993  HIT:     192612  MISS:       2381  iACCESS:          0  iHIT:          0  iMISS:          0  dACCESS:     194993  dHIT:     192612  dMISS:       2381  itACCESS:          0  itHIT:          0  itMISS:          0  dtACCESS:          0  dtHIT:          0  dtMISS:          0
LLC TRANSLATION  ACCESS:      95635  HIT:      26346  MISS:      69289  iACCESS:          0  iHIT:          0  iMISS:          0  dACCESS:          0  dHIT:          0  dMISS:          0  itACCESS:      18336  itHIT:       5225  itMISS:      13111  dtACCESS:      77299  dtHIT:      21121  dtMISS:      56178
LLC PREFETCH  REQUESTED:          0  ISSUED:          0  CROSSED:          0  USEFUL:          0  USELESS:          0
LLC AVERAGE iMISS LATENCY: 50.3033 cycles
LLC AVERAGE dMISS LATENCY: 99.996 cycles
LLC AVERAGE itMISS LATENCY: 1.74001 cycles
LLC AVERAGE dtMISS LATENCY: 7.65895 cycles
LLC PAGE CROSSINGS (TLB HIT):         0 
LLC PAGE CROSSINGS (TLB MISS):         0 
LLC AVERAGE MISS LATENCY: 159.699 cycles

PageTableWalker TOTAL       ACCESS:     102787  
PageTableWalker AVERAGE LATENCY: 4.21874 cycles
PageTableWalker TOTAL LATENCY: 433631 cycles

DRAM Statistics
Channel 0
 RQ ROW_BUFFER_HIT:     366667
  ROW_BUFFER_MISS:     937814
 AVG DBUS CONGESTED CYCLE:    3.64017
 WQ ROW_BUFFER_HIT:      31450
  ROW_BUFFER_MISS:      29740  FULL:          0

