last_page:0x200000000000000
VMEM_RES_CAP:0x100000
PAGE_SIZE:4096
LOG2_PAGE_SIZE:12
LOG2_PAGE_TABLE_SIZE:9
page_table_levels:5
WARNING: physical memory size is smaller than virtual memory size
FDiP enabled with aggresivity 16

*** ChampSim Multicore Out-of-Order Simulator ***

Warmup Instructions: 50000000
Simulation Instructions: 100000000
Number of CPUs: 1
Small page size: 4096
Large page size: 2097152

CPU 0 Bimodal branch predictor
Basic BTB sets: 1024 ways: 8 indirect buffer size: 4096 RAS size: 64
Instruction page size distrubution: 0
Loading instruction page size distribution from /home/bsc/bsc018186/scratch/itp_asplos25_AE/dump/srv207_ap.pdst
Data page size distrubution: 0
Loading data page size distribution from /home/bsc/bsc018186/scratch/itp_asplos25_AE/dump/srv207_ap.pdst
cpu0_L2C IP-based stride prefetcher
cpu0_L2C is using PTP replacement policy:
	TLB_STRESS_THRESHOLD:0
	PTE_EVICTION_RATIO:0
cpu0_L1D next line prefetcher
cpu0_L1I next line prefetcher
Off-chip DRAM Size: 4 GiB Channels: 1 Width: 64-bit Data Rate: 3200 MT/s
Heartbeat CPU 0 instructions: 10000002 cycles: 2501571 heartbeat IPC: 3.99749 cumulative IPC: 3.99749 (Simulation time: 0 hr 0 min 37 sec) 
Heartbeat CPU 0 instructions: 20000002 cycles: 5001943 heartbeat IPC: 3.99941 cumulative IPC: 3.99845 (Simulation time: 0 hr 1 min 16 sec) 
Heartbeat CPU 0 instructions: 30000000 cycles: 7502160 heartbeat IPC: 3.99966 cumulative IPC: 3.99885 (Simulation time: 0 hr 1 min 56 sec) 
Heartbeat CPU 0 instructions: 40000000 cycles: 10002347 heartbeat IPC: 3.99971 cumulative IPC: 3.99907 (Simulation time: 0 hr 2 min 37 sec) 
Heartbeat CPU 0 instructions: 50000001 cycles: 12502549 heartbeat IPC: 3.99968 cumulative IPC: 3.99919 (Simulation time: 0 hr 3 min 19 sec) 
Warmup finished CPU 0 instructions: 50000001 cycles: 12502550 cumulative IPC: 3.99919 (Simulation time: 0 hr 3 min 19 sec) 

Warmup complete CPU 0 instructions: 50000001 cycles: 12502550 (Simulation time: 0 hr 3 min 19 sec) 

Heartbeat CPU 0 instructions: 60000002 cycles: 33482862 heartbeat IPC: 0.476638 cumulative IPC: 0.476638 (Simulation time: 0 hr 4 min 33 sec) 
Heartbeat CPU 0 instructions: 70000003 cycles: 55481909 heartbeat IPC: 0.454566 cumulative IPC: 0.46534 (Simulation time: 0 hr 5 min 47 sec) 
Heartbeat CPU 0 instructions: 80000000 cycles: 76784282 heartbeat IPC: 0.469432 cumulative IPC: 0.466696 (Simulation time: 0 hr 7 min 1 sec) 
Heartbeat CPU 0 instructions: 90000002 cycles: 98629214 heartbeat IPC: 0.457773 cumulative IPC: 0.464433 (Simulation time: 0 hr 8 min 15 sec) 
Heartbeat CPU 0 instructions: 100000002 cycles: 120151107 heartbeat IPC: 0.464644 cumulative IPC: 0.464475 (Simulation time: 0 hr 9 min 30 sec) 
*** Reached end of trace: /gpfs/projects/bsc18/MN4/bsc18/romol/ChampSim/traces/qualcomm_srv/srv207_ap.champsimtrace.xz
Heartbeat CPU 0 instructions: 110000004 cycles: 142860357 heartbeat IPC: 0.44035 cumulative IPC: 0.460272 (Simulation time: 0 hr 10 min 48 sec) 
Heartbeat CPU 0 instructions: 120000004 cycles: 164509044 heartbeat IPC: 0.461922 cumulative IPC: 0.460507 (Simulation time: 0 hr 12 min 4 sec) 
Heartbeat CPU 0 instructions: 130000001 cycles: 187103778 heartbeat IPC: 0.442581 cumulative IPC: 0.458187 (Simulation time: 0 hr 13 min 22 sec) 
Heartbeat CPU 0 instructions: 140000001 cycles: 209511278 heartbeat IPC: 0.44628 cumulative IPC: 0.456833 (Simulation time: 0 hr 14 min 39 sec) 
Heartbeat CPU 0 instructions: 150000002 cycles: 233309415 heartbeat IPC: 0.420202 cumulative IPC: 0.452885 (Simulation time: 0 hr 15 min 59 sec) 
Simulation finished CPU 0 instructions: 100000001 cycles: 220806866 cumulative IPC: 0.452885 (Simulation time: 0 hr 15 min 59 sec) 

Simulation complete CPU 0 instructions: 100000001 cycles: 220806866 (Simulation time: 0 hr 15 min 59 sec) 


ChampSim completed all CPUs

Saving instructions large page distribution to /home/bsc/bsc018186/scratch/itp_asplos25_AE/dump/srv207_ap.pdst...
Saving data large page distribution to /home/bsc/bsc018186/scratch/itp_asplos25_AE/dump/srv207_ap.pdst...
=== Simulation ===
CPU 0 runs /gpfs/projects/bsc18/MN4/bsc18/romol/ChampSim/traces/qualcomm_srv/srv207_ap.champsimtrace.xz

Region of Interest Statistics

CPU 0 cumulative IPC: 0.452885 instructions: 100000001 cycles: 220806866
CPU 0 Branch Prediction Accuracy: 79.9419% MPKI: 36.2707 Average ROB Occupancy at Mispredict: 11.4549
Branch type MPKI
BRANCH_DIRECT_JUMP: 1.35835
BRANCH_INDIRECT: 18.5563
BRANCH_CONDITIONAL: 11.2955
BRANCH_DIRECT_CALL: 2.47045
BRANCH_INDIRECT_CALL: 0.68596
BRANCH_RETURN: 1.90409

Instructions large pages: 0
Instructions small pages: 1279
Large page distribution for instructions: 0%

Data large pages: 0
Data small pages: 6352
Large page distribution for data: 0%

cpu0_L1I TOTAL       ACCESS:   34940209  HIT:   26963183  MISS:    7977026  iACCESS:   34940209  iHIT:   26963183  iMISS:    7977026  dACCESS:          0  dHIT:          0  dMISS:          0  itACCESS:          0  itHIT:          0  itMISS:          0  dtACCESS:          0  dtHIT:          0  dtMISS:          0
cpu0_L1I LOAD         ACCESS:    9787688  HIT:    7575345  MISS:    2212343  iACCESS:    9787688  iHIT:    7575345  iMISS:    2212343  dACCESS:          0  dHIT:          0  dMISS:          0  itACCESS:          0  itHIT:          0  itMISS:          0  dtACCESS:          0  dtHIT:          0  dtMISS:          0
cpu0_L1I RFO          ACCESS:          0  HIT:          0  MISS:          0  iACCESS:          0  iHIT:          0  iMISS:          0  dACCESS:          0  dHIT:          0  dMISS:          0  itACCESS:          0  itHIT:          0  itMISS:          0  dtACCESS:          0  dtHIT:          0  dtMISS:          0
cpu0_L1I PREFETCH     ACCESS:   25152521  HIT:   19387838  MISS:    5764683  iACCESS:   25152521  iHIT:   19387838  iMISS:    5764683  dACCESS:          0  dHIT:          0  dMISS:          0  itACCESS:          0  itHIT:          0  itMISS:          0  dtACCESS:          0  dtHIT:          0  dtMISS:          0
cpu0_L1I WRITE        ACCESS:          0  HIT:          0  MISS:          0  iACCESS:          0  iHIT:          0  iMISS:          0  dACCESS:          0  dHIT:          0  dMISS:          0  itACCESS:          0  itHIT:          0  itMISS:          0  dtACCESS:          0  dtHIT:          0  dtMISS:          0
cpu0_L1I TRANSLATION  ACCESS:          0  HIT:          0  MISS:          0  iACCESS:          0  iHIT:          0  iMISS:          0  dACCESS:          0  dHIT:          0  dMISS:          0  itACCESS:          0  itHIT:          0  itMISS:          0  dtACCESS:          0  dtHIT:          0  dtMISS:          0
cpu0_L1I PREFETCH  REQUESTED:   27406728  ISSUED:   27406611  CROSSED:          0  USEFUL:    1943969  USELESS:     698075
cpu0_L1I AVERAGE iMISS LATENCY: 21.3297 cycles
cpu0_L1I AVERAGE dMISS LATENCY: 0 cycles
cpu0_L1I AVERAGE itMISS LATENCY: 0 cycles
cpu0_L1I AVERAGE dtMISS LATENCY: 0 cycles
cpu0_L1I PAGE CROSSINGS (TLB HIT):         0 
cpu0_L1I PAGE CROSSINGS (TLB MISS):         0 
cpu0_L1I AVERAGE MISS LATENCY: 21.3297 cycles
cpu0_ITLB TOTAL       ACCESS:   29560975  HIT:   27625034  MISS:    1935941  iACCESS:   29560975  iHIT:   27625034  iMISS:    1935941  dACCESS:          0  dHIT:          0  dMISS:          0  itACCESS:          0  itHIT:          0  itMISS:          0  dtACCESS:          0  dtHIT:          0  dtMISS:          0
cpu0_ITLB LOAD         ACCESS:   29560975  HIT:   27625034  MISS:    1935941  iACCESS:   29560975  iHIT:   27625034  iMISS:    1935941  dACCESS:          0  dHIT:          0  dMISS:          0  itACCESS:          0  itHIT:          0  itMISS:          0  dtACCESS:          0  dtHIT:          0  dtMISS:          0
cpu0_ITLB RFO          ACCESS:          0  HIT:          0  MISS:          0  iACCESS:          0  iHIT:          0  iMISS:          0  dACCESS:          0  dHIT:          0  dMISS:          0  itACCESS:          0  itHIT:          0  itMISS:          0  dtACCESS:          0  dtHIT:          0  dtMISS:          0
cpu0_ITLB PREFETCH     ACCESS:          0  HIT:          0  MISS:          0  iACCESS:          0  iHIT:          0  iMISS:          0  dACCESS:          0  dHIT:          0  dMISS:          0  itACCESS:          0  itHIT:          0  itMISS:          0  dtACCESS:          0  dtHIT:          0  dtMISS:          0
cpu0_ITLB WRITE        ACCESS:          0  HIT:          0  MISS:          0  iACCESS:          0  iHIT:          0  iMISS:          0  dACCESS:          0  dHIT:          0  dMISS:          0  itACCESS:          0  itHIT:          0  itMISS:          0  dtACCESS:          0  dtHIT:          0  dtMISS:          0
cpu0_ITLB TRANSLATION  ACCESS:          0  HIT:          0  MISS:          0  iACCESS:          0  iHIT:          0  iMISS:          0  dACCESS:          0  dHIT:          0  dMISS:          0  itACCESS:          0  itHIT:          0  itMISS:          0  dtACCESS:          0  dtHIT:          0  dtMISS:          0
cpu0_ITLB PREFETCH  REQUESTED:          0  ISSUED:          0  CROSSED:          0  USEFUL:     330712  USELESS:      70005
cpu0_ITLB AVERAGE iMISS LATENCY: 7.72046 cycles
cpu0_ITLB AVERAGE dMISS LATENCY: 0 cycles
cpu0_ITLB AVERAGE itMISS LATENCY: 0 cycles
cpu0_ITLB AVERAGE dtMISS LATENCY: 0 cycles
cpu0_ITLB PAGE CROSSINGS (TLB HIT):         0 
cpu0_ITLB PAGE CROSSINGS (TLB MISS):         0 
cpu0_ITLB AVERAGE MISS LATENCY: 7.72046 cycles
cpu0_DTLB TOTAL       ACCESS:   28766628  HIT:   26826303  MISS:    1940325  iACCESS:          0  iHIT:          0  iMISS:          0  dACCESS:   28766628  dHIT:   26826303  dMISS:    1940325  itACCESS:          0  itHIT:          0  itMISS:          0  dtACCESS:          0  dtHIT:          0  dtMISS:          0
cpu0_DTLB LOAD         ACCESS:   28766628  HIT:   26826303  MISS:    1940325  iACCESS:          0  iHIT:          0  iMISS:          0  dACCESS:   28766628  dHIT:   26826303  dMISS:    1940325  itACCESS:          0  itHIT:          0  itMISS:          0  dtACCESS:          0  dtHIT:          0  dtMISS:          0
cpu0_DTLB RFO          ACCESS:          0  HIT:          0  MISS:          0  iACCESS:          0  iHIT:          0  iMISS:          0  dACCESS:          0  dHIT:          0  dMISS:          0  itACCESS:          0  itHIT:          0  itMISS:          0  dtACCESS:          0  dtHIT:          0  dtMISS:          0
cpu0_DTLB PREFETCH     ACCESS:          0  HIT:          0  MISS:          0  iACCESS:          0  iHIT:          0  iMISS:          0  dACCESS:          0  dHIT:          0  dMISS:          0  itACCESS:          0  itHIT:          0  itMISS:          0  dtACCESS:          0  dtHIT:          0  dtMISS:          0
cpu0_DTLB WRITE        ACCESS:          0  HIT:          0  MISS:          0  iACCESS:          0  iHIT:          0  iMISS:          0  dACCESS:          0  dHIT:          0  dMISS:          0  itACCESS:          0  itHIT:          0  itMISS:          0  dtACCESS:          0  dtHIT:          0  dtMISS:          0
cpu0_DTLB TRANSLATION  ACCESS:          0  HIT:          0  MISS:          0  iACCESS:          0  iHIT:          0  iMISS:          0  dACCESS:          0  dHIT:          0  dMISS:          0  itACCESS:          0  itHIT:          0  itMISS:          0  dtACCESS:          0  dtHIT:          0  dtMISS:          0
cpu0_DTLB PREFETCH  REQUESTED:          0  ISSUED:          0  CROSSED:          0  USEFUL:          0  USELESS:          0
cpu0_DTLB AVERAGE iMISS LATENCY: 0 cycles
cpu0_DTLB AVERAGE dMISS LATENCY: 20.469 cycles
cpu0_DTLB AVERAGE itMISS LATENCY: 0 cycles
cpu0_DTLB AVERAGE dtMISS LATENCY: 0 cycles
cpu0_DTLB PAGE CROSSINGS (TLB HIT):         0 
cpu0_DTLB PAGE CROSSINGS (TLB MISS):         0 
cpu0_DTLB AVERAGE MISS LATENCY: 20.469 cycles
cpu0_STLB TOTAL       ACCESS:    1571600  HIT:    1307388  MISS:     264212  iACCESS:     400718  iHIT:     305555  iMISS:      95163  dACCESS:    1170882  dHIT:    1001833  dMISS:     169049  itACCESS:          0  itHIT:          0  itMISS:          0  dtACCESS:          0  dtHIT:          0  dtMISS:          0
cpu0_STLB LOAD         ACCESS:    1571600  HIT:    1307388  MISS:     264212  iACCESS:     400718  iHIT:     305555  iMISS:      95163  dACCESS:    1170882  dHIT:    1001833  dMISS:     169049  itACCESS:          0  itHIT:          0  itMISS:          0  dtACCESS:          0  dtHIT:          0  dtMISS:          0
cpu0_STLB RFO          ACCESS:          0  HIT:          0  MISS:          0  iACCESS:          0  iHIT:          0  iMISS:          0  dACCESS:          0  dHIT:          0  dMISS:          0  itACCESS:          0  itHIT:          0  itMISS:          0  dtACCESS:          0  dtHIT:          0  dtMISS:          0
cpu0_STLB PREFETCH     ACCESS:          0  HIT:          0  MISS:          0  iACCESS:          0  iHIT:          0  iMISS:          0  dACCESS:          0  dHIT:          0  dMISS:          0  itACCESS:          0  itHIT:          0  itMISS:          0  dtACCESS:          0  dtHIT:          0  dtMISS:          0
cpu0_STLB WRITE        ACCESS:          0  HIT:          0  MISS:          0  iACCESS:          0  iHIT:          0  iMISS:          0  dACCESS:          0  dHIT:          0  dMISS:          0  itACCESS:          0  itHIT:          0  itMISS:          0  dtACCESS:          0  dtHIT:          0  dtMISS:          0
cpu0_STLB TRANSLATION  ACCESS:          0  HIT:          0  MISS:          0  iACCESS:          0  iHIT:          0  iMISS:          0  dACCESS:          0  dHIT:          0  dMISS:          0  itACCESS:          0  itHIT:          0  itMISS:          0  dtACCESS:          0  dtHIT:          0  dtMISS:          0
cpu0_STLB PREFETCH  REQUESTED:          0  ISSUED:          0  CROSSED:          0  USEFUL:          0  USELESS:          0
cpu0_STLB AVERAGE iMISS LATENCY: 44.4471 cycles
cpu0_STLB AVERAGE dMISS LATENCY: 114.773 cycles
cpu0_STLB AVERAGE itMISS LATENCY: 0 cycles
cpu0_STLB AVERAGE dtMISS LATENCY: 0 cycles
cpu0_STLB PAGE CROSSINGS (TLB HIT):         0 
cpu0_STLB PAGE CROSSINGS (TLB MISS):         0 
cpu0_STLB AVERAGE MISS LATENCY: 159.22 cycles
cpu0_L1D TOTAL       ACCESS:   44257572  HIT:   39397539  MISS:    4860033  iACCESS:          0  iHIT:          0  iMISS:          0  dACCESS:   43918543  dHIT:   39370747  dMISS:    4547796  itACCESS:     102166  itHIT:      13012  itMISS:      89154  dtACCESS:     236863  dtHIT:      13780  dtMISS:     223083
cpu0_L1D LOAD         ACCESS:   20319719  HIT:   18194965  MISS:    2124754  iACCESS:          0  iHIT:          0  iMISS:          0  dACCESS:   20319719  dHIT:   18194965  dMISS:    2124754  itACCESS:          0  itHIT:          0  itMISS:          0  dtACCESS:          0  dtHIT:          0  dtMISS:          0
cpu0_L1D RFO          ACCESS:          0  HIT:          0  MISS:          0  iACCESS:          0  iHIT:          0  iMISS:          0  dACCESS:          0  dHIT:          0  dMISS:          0  itACCESS:          0  itHIT:          0  itMISS:          0  dtACCESS:          0  dtHIT:          0  dtMISS:          0
cpu0_L1D PREFETCH     ACCESS:   13513342  HIT:   11570924  MISS:    1942418  iACCESS:          0  iHIT:          0  iMISS:          0  dACCESS:   13513342  dHIT:   11570924  dMISS:    1942418  itACCESS:          0  itHIT:          0  itMISS:          0  dtACCESS:          0  dtHIT:          0  dtMISS:          0
cpu0_L1D WRITE        ACCESS:   10085482  HIT:    9604858  MISS:     480624  iACCESS:          0  iHIT:          0  iMISS:          0  dACCESS:   10085482  dHIT:    9604858  dMISS:     480624  itACCESS:          0  itHIT:          0  itMISS:          0  dtACCESS:          0  dtHIT:          0  dtMISS:          0
cpu0_L1D TRANSLATION  ACCESS:     339029  HIT:      26792  MISS:     312237  iACCESS:          0  iHIT:          0  iMISS:          0  dACCESS:          0  dHIT:          0  dMISS:          0  itACCESS:     102166  itHIT:      13012  itMISS:      89154  dtACCESS:     236863  dtHIT:      13780  dtMISS:     223083
cpu0_L1D PREFETCH  REQUESTED:   20319719  ISSUED:   18111329  CROSSED:          0  USEFUL:     344568  USELESS:     774658
cpu0_L1D AVERAGE iMISS LATENCY: 0 cycles
cpu0_L1D AVERAGE dMISS LATENCY: 41.682 cycles
cpu0_L1D AVERAGE itMISS LATENCY: 2.2452 cycles
cpu0_L1D AVERAGE dtMISS LATENCY: 5.78112 cycles
cpu0_L1D PAGE CROSSINGS (TLB HIT):         0 
cpu0_L1D PAGE CROSSINGS (TLB MISS):         0 
cpu0_L1D AVERAGE MISS LATENCY: 49.7083 cycles
cpu0_L2C TOTAL       ACCESS:    7534065  HIT:    3034401  MISS:    4499664  iACCESS:    3389037  iHIT:    1639827  iMISS:    1749210  dACCESS:    3847551  dHIT:    1311400  dMISS:    2536151  itACCESS:      89154  itHIT:      25521  itMISS:      63633  dtACCESS:     208323  dtHIT:      57653  dtMISS:     150670
cpu0_L2C LOAD         ACCESS:    1850278  HIT:     715348  MISS:    1134930  iACCESS:     776915  iHIT:     376978  iMISS:     399937  dACCESS:    1073363  dHIT:     338370  dMISS:     734993  itACCESS:          0  itHIT:          0  itMISS:          0  dtACCESS:          0  dtHIT:          0  dtMISS:          0
cpu0_L2C RFO          ACCESS:     171647  HIT:      51157  MISS:     120490  iACCESS:          0  iHIT:          0  iMISS:          0  dACCESS:     171647  dHIT:      51157  dMISS:     120490  itACCESS:          0  itHIT:          0  itMISS:          0  dtACCESS:          0  dtHIT:          0  dtMISS:          0
cpu0_L2C PREFETCH     ACCESS:    4924819  HIT:    1965248  MISS:    2959571  iACCESS:    2612122  iHIT:    1262849  iMISS:    1349273  dACCESS:    2312697  dHIT:     702399  dMISS:    1610298  itACCESS:          0  itHIT:          0  itMISS:          0  dtACCESS:          0  dtHIT:          0  dtMISS:          0
cpu0_L2C WRITE        ACCESS:     289844  HIT:     219474  MISS:      70370  iACCESS:          0  iHIT:          0  iMISS:          0  dACCESS:     289844  dHIT:     219474  dMISS:      70370  itACCESS:          0  itHIT:          0  itMISS:          0  dtACCESS:          0  dtHIT:          0  dtMISS:          0
cpu0_L2C TRANSLATION  ACCESS:     297477  HIT:      83174  MISS:     214303  iACCESS:          0  iHIT:          0  iMISS:          0  dACCESS:          0  dHIT:          0  dMISS:          0  itACCESS:      89154  itHIT:      25521  itMISS:      63633  dtACCESS:     208323  dtHIT:      57653  dtMISS:     150670
cpu0_L2C PREFETCH  REQUESTED:    1439660  ISSUED:    1439658  CROSSED:          0  USEFUL:     345781  USELESS:     344816
cpu0_L2C AVERAGE iMISS LATENCY: 31.2187 cycles
cpu0_L2C AVERAGE dMISS LATENCY: 56.2297 cycles
cpu0_L2C AVERAGE itMISS LATENCY: 2.23203 cycles
cpu0_L2C AVERAGE dtMISS LATENCY: 5.79173 cycles
cpu0_L2C PAGE CROSSINGS (TLB HIT):         0 
cpu0_L2C PAGE CROSSINGS (TLB MISS):         0 
cpu0_L2C AVERAGE MISS LATENCY: 95.4721 cycles
LLC TOTAL       ACCESS:    4428091  HIT:    2287984  MISS:    2140107  iACCESS:    1672438  iHIT:     950588  iMISS:     721850  dACCESS:    2541350  dHIT:    1295314  dMISS:    1246036  itACCESS:      63633  itHIT:      13610  itMISS:      50023  dtACCESS:     150670  dtHIT:      28472  dtMISS:     122198
LLC LOAD         ACCESS:    1127371  HIT:     630389  MISS:     496982  iACCESS:     398664  iHIT:     247810  iMISS:     150854  dACCESS:     728707  dHIT:     382579  dMISS:     346128  itACCESS:          0  itHIT:          0  itMISS:          0  dtACCESS:          0  dtHIT:          0  dtMISS:          0
LLC RFO          ACCESS:     120489  HIT:      53350  MISS:      67139  iACCESS:          0  iHIT:          0  iMISS:          0  dACCESS:     120489  dHIT:      53350  dMISS:      67139  itACCESS:          0  itHIT:          0  itMISS:          0  dtACCESS:          0  dtHIT:          0  dtMISS:          0
LLC PREFETCH     ACCESS:    2778593  HIT:    1380500  MISS:    1398093  iACCESS:    1273774  iHIT:     702778  iMISS:     570996  dACCESS:    1504819  dHIT:     677722  dMISS:     827097  itACCESS:          0  itHIT:          0  itMISS:          0  dtACCESS:          0  dtHIT:          0  dtMISS:          0
LLC WRITE        ACCESS:     187335  HIT:     181663  MISS:       5672  iACCESS:          0  iHIT:          0  iMISS:          0  dACCESS:     187335  dHIT:     181663  dMISS:       5672  itACCESS:          0  itHIT:          0  itMISS:          0  dtACCESS:          0  dtHIT:          0  dtMISS:          0
LLC TRANSLATION  ACCESS:     214303  HIT:      42082  MISS:     172221  iACCESS:          0  iHIT:          0  iMISS:          0  dACCESS:          0  dHIT:          0  dMISS:          0  itACCESS:      63633  itHIT:      13610  itMISS:      50023  dtACCESS:     150670  dtHIT:      28472  dtMISS:     122198
LLC PREFETCH  REQUESTED:          0  ISSUED:          0  CROSSED:          0  USEFUL:          0  USELESS:          0
LLC AVERAGE iMISS LATENCY: 50.3977 cycles
LLC AVERAGE dMISS LATENCY: 97.7505 cycles
LLC AVERAGE itMISS LATENCY: 4.10661 cycles
LLC AVERAGE dtMISS LATENCY: 10.79 cycles
LLC PAGE CROSSINGS (TLB HIT):         0 
LLC PAGE CROSSINGS (TLB MISS):         0 
LLC AVERAGE MISS LATENCY: 163.045 cycles

PageTableWalker TOTAL       ACCESS:     132897  
PageTableWalker AVERAGE LATENCY: 4.45141 cycles
PageTableWalker TOTAL LATENCY: 591579 cycles

DRAM Statistics
Channel 0
 RQ ROW_BUFFER_HIT:     579727
  ROW_BUFFER_MISS:    1537090
 AVG DBUS CONGESTED CYCLE:    3.64198
 WQ ROW_BUFFER_HIT:      45713
  ROW_BUFFER_MISS:      32905  FULL:          0

