last_page:0x200000000000000
VMEM_RES_CAP:0x100000
PAGE_SIZE:4096
LOG2_PAGE_SIZE:12
LOG2_PAGE_TABLE_SIZE:9
page_table_levels:5
WARNING: physical memory size is smaller than virtual memory size
FDiP enabled with aggresivity 16

*** ChampSim Multicore Out-of-Order Simulator ***

Warmup Instructions: 50000000
Simulation Instructions: 100000000
Number of CPUs: 1
Small page size: 4096
Large page size: 2097152

CPU 0 Bimodal branch predictor
Basic BTB sets: 1024 ways: 8 indirect buffer size: 4096 RAS size: 64
Instruction page size distrubution: 0
Loading instruction page size distribution from /home/bsc/bsc018186/scratch/itp_asplos25_AE/dump/srv293_ap.pdst
Data page size distrubution: 0
Loading data page size distribution from /home/bsc/bsc018186/scratch/itp_asplos25_AE/dump/srv293_ap.pdst
cpu0_L2C IP-based stride prefetcher
cpu0_L1D next line prefetcher
cpu0_L1I next line prefetcher
Off-chip DRAM Size: 4 GiB Channels: 1 Width: 64-bit Data Rate: 3200 MT/s
Heartbeat CPU 0 instructions: 10000002 cycles: 2500283 heartbeat IPC: 3.99955 cumulative IPC: 3.99955 (Simulation time: 0 hr 0 min 34 sec) 
Heartbeat CPU 0 instructions: 20000002 cycles: 5000365 heartbeat IPC: 3.99987 cumulative IPC: 3.99971 (Simulation time: 0 hr 1 min 11 sec) 
Heartbeat CPU 0 instructions: 30000000 cycles: 7500402 heartbeat IPC: 3.99995 cumulative IPC: 3.99979 (Simulation time: 0 hr 1 min 47 sec) 
Heartbeat CPU 0 instructions: 40000003 cycles: 10000426 heartbeat IPC: 3.99997 cumulative IPC: 3.99983 (Simulation time: 0 hr 2 min 24 sec) 
Heartbeat CPU 0 instructions: 50000003 cycles: 12500426 heartbeat IPC: 4 cumulative IPC: 3.99987 (Simulation time: 0 hr 3 min 1 sec) 
Warmup finished CPU 0 instructions: 50000003 cycles: 12500427 cumulative IPC: 3.99987 (Simulation time: 0 hr 3 min 1 sec) 

Warmup complete CPU 0 instructions: 50000003 cycles: 12500427 (Simulation time: 0 hr 3 min 1 sec) 

Heartbeat CPU 0 instructions: 60000001 cycles: 27702912 heartbeat IPC: 0.657788 cumulative IPC: 0.657788 (Simulation time: 0 hr 4 min 1 sec) 
Heartbeat CPU 0 instructions: 70000000 cycles: 44212970 heartbeat IPC: 0.605692 cumulative IPC: 0.630666 (Simulation time: 0 hr 5 min 3 sec) 
Heartbeat CPU 0 instructions: 80000002 cycles: 59430306 heartbeat IPC: 0.657146 cumulative IPC: 0.639252 (Simulation time: 0 hr 6 min 3 sec) 
Heartbeat CPU 0 instructions: 90000004 cycles: 74691629 heartbeat IPC: 0.655252 cumulative IPC: 0.643178 (Simulation time: 0 hr 7 min 3 sec) 
Heartbeat CPU 0 instructions: 100000002 cycles: 90044953 heartbeat IPC: 0.651325 cumulative IPC: 0.644791 (Simulation time: 0 hr 8 min 4 sec) 
*** Reached end of trace: /gpfs/projects/bsc18/MN4/bsc18/romol/ChampSim/traces/qualcomm_srv/srv293_ap.champsimtrace.xz
Heartbeat CPU 0 instructions: 110000004 cycles: 104973851 heartbeat IPC: 0.669842 cumulative IPC: 0.648836 (Simulation time: 0 hr 9 min 4 sec) 
Heartbeat CPU 0 instructions: 120000004 cycles: 120138484 heartbeat IPC: 0.65943 cumulative IPC: 0.650328 (Simulation time: 0 hr 10 min 4 sec) 
Heartbeat CPU 0 instructions: 130000003 cycles: 134874773 heartbeat IPC: 0.678597 cumulative IPC: 0.653732 (Simulation time: 0 hr 11 min 4 sec) 
Heartbeat CPU 0 instructions: 140000002 cycles: 150426110 heartbeat IPC: 0.643032 cumulative IPC: 0.652526 (Simulation time: 0 hr 12 min 6 sec) 
Heartbeat CPU 0 instructions: 150000000 cycles: 165551354 heartbeat IPC: 0.661147 cumulative IPC: 0.653378 (Simulation time: 0 hr 13 min 6 sec) 
Simulation finished CPU 0 instructions: 100000002 cycles: 153050929 cumulative IPC: 0.653378 (Simulation time: 0 hr 13 min 6 sec) 

Simulation complete CPU 0 instructions: 100000002 cycles: 153050929 (Simulation time: 0 hr 13 min 6 sec) 


ChampSim completed all CPUs

Saving instructions large page distribution to /home/bsc/bsc018186/scratch/itp_asplos25_AE/dump/srv293_ap.pdst...
Saving data large page distribution to /home/bsc/bsc018186/scratch/itp_asplos25_AE/dump/srv293_ap.pdst...
=== Simulation ===
CPU 0 runs /gpfs/projects/bsc18/MN4/bsc18/romol/ChampSim/traces/qualcomm_srv/srv293_ap.champsimtrace.xz

Region of Interest Statistics

CPU 0 cumulative IPC: 0.653378 instructions: 100000002 cycles: 153050929
CPU 0 Branch Prediction Accuracy: 83.4793% MPKI: 29.5378 Average ROB Occupancy at Mispredict: 13.0091
Branch type MPKI
BRANCH_DIRECT_JUMP: 1.01596
BRANCH_INDIRECT: 15.2507
BRANCH_CONDITIONAL: 9.60774
BRANCH_DIRECT_CALL: 1.83251
BRANCH_INDIRECT_CALL: 0.50275
BRANCH_RETURN: 1.32809

Instructions large pages: 0
Instructions small pages: 1052
Large page distribution for instructions: 0%

Data large pages: 0
Data small pages: 10204
Large page distribution for data: 0%

cpu0_L1I TOTAL       ACCESS:   34736793  HIT:   26979511  MISS:    7757282  iACCESS:   34736793  iHIT:   26979511  iMISS:    7757282  dACCESS:          0  dHIT:          0  dMISS:          0  itACCESS:          0  itHIT:          0  itMISS:          0  dtACCESS:          0  dtHIT:          0  dtMISS:          0
cpu0_L1I LOAD         ACCESS:   10222777  HIT:    8035316  MISS:    2187461  iACCESS:   10222777  iHIT:    8035316  iMISS:    2187461  dACCESS:          0  dHIT:          0  dMISS:          0  itACCESS:          0  itHIT:          0  itMISS:          0  dtACCESS:          0  dtHIT:          0  dtMISS:          0
cpu0_L1I RFO          ACCESS:          0  HIT:          0  MISS:          0  iACCESS:          0  iHIT:          0  iMISS:          0  dACCESS:          0  dHIT:          0  dMISS:          0  itACCESS:          0  itHIT:          0  itMISS:          0  dtACCESS:          0  dtHIT:          0  dtMISS:          0
cpu0_L1I PREFETCH     ACCESS:   24514016  HIT:   18944195  MISS:    5569821  iACCESS:   24514016  iHIT:   18944195  iMISS:    5569821  dACCESS:          0  dHIT:          0  dMISS:          0  itACCESS:          0  itHIT:          0  itMISS:          0  dtACCESS:          0  dtHIT:          0  dtMISS:          0
cpu0_L1I WRITE        ACCESS:          0  HIT:          0  MISS:          0  iACCESS:          0  iHIT:          0  iMISS:          0  dACCESS:          0  dHIT:          0  dMISS:          0  itACCESS:          0  itHIT:          0  itMISS:          0  dtACCESS:          0  dtHIT:          0  dtMISS:          0
cpu0_L1I TRANSLATION  ACCESS:          0  HIT:          0  MISS:          0  iACCESS:          0  iHIT:          0  iMISS:          0  dACCESS:          0  dHIT:          0  dMISS:          0  itACCESS:          0  itHIT:          0  itMISS:          0  dtACCESS:          0  dtHIT:          0  dtMISS:          0
cpu0_L1I PREFETCH  REQUESTED:   27113926  ISSUED:   27113926  CROSSED:          0  USEFUL:    1882598  USELESS:     623507
cpu0_L1I AVERAGE iMISS LATENCY: 13.1646 cycles
cpu0_L1I AVERAGE dMISS LATENCY: 0 cycles
cpu0_L1I AVERAGE itMISS LATENCY: 0 cycles
cpu0_L1I AVERAGE dtMISS LATENCY: 0 cycles
cpu0_L1I PAGE CROSSINGS (TLB HIT):         0 
cpu0_L1I PAGE CROSSINGS (TLB MISS):         0 
cpu0_L1I AVERAGE MISS LATENCY: 13.1646 cycles
cpu0_ITLB TOTAL       ACCESS:   28993802  HIT:   27018665  MISS:    1975137  iACCESS:   28993802  iHIT:   27018665  iMISS:    1975137  dACCESS:          0  dHIT:          0  dMISS:          0  itACCESS:          0  itHIT:          0  itMISS:          0  dtACCESS:          0  dtHIT:          0  dtMISS:          0
cpu0_ITLB LOAD         ACCESS:   28993802  HIT:   27018665  MISS:    1975137  iACCESS:   28993802  iHIT:   27018665  iMISS:    1975137  dACCESS:          0  dHIT:          0  dMISS:          0  itACCESS:          0  itHIT:          0  itMISS:          0  dtACCESS:          0  dtHIT:          0  dtMISS:          0
cpu0_ITLB RFO          ACCESS:          0  HIT:          0  MISS:          0  iACCESS:          0  iHIT:          0  iMISS:          0  dACCESS:          0  dHIT:          0  dMISS:          0  itACCESS:          0  itHIT:          0  itMISS:          0  dtACCESS:          0  dtHIT:          0  dtMISS:          0
cpu0_ITLB PREFETCH     ACCESS:          0  HIT:          0  MISS:          0  iACCESS:          0  iHIT:          0  iMISS:          0  dACCESS:          0  dHIT:          0  dMISS:          0  itACCESS:          0  itHIT:          0  itMISS:          0  dtACCESS:          0  dtHIT:          0  dtMISS:          0
cpu0_ITLB WRITE        ACCESS:          0  HIT:          0  MISS:          0  iACCESS:          0  iHIT:          0  iMISS:          0  dACCESS:          0  dHIT:          0  dMISS:          0  itACCESS:          0  itHIT:          0  itMISS:          0  dtACCESS:          0  dtHIT:          0  dtMISS:          0
cpu0_ITLB TRANSLATION  ACCESS:          0  HIT:          0  MISS:          0  iACCESS:          0  iHIT:          0  iMISS:          0  dACCESS:          0  dHIT:          0  dMISS:          0  itACCESS:          0  itHIT:          0  itMISS:          0  dtACCESS:          0  dtHIT:          0  dtMISS:          0
cpu0_ITLB PREFETCH  REQUESTED:          0  ISSUED:          0  CROSSED:          0  USEFUL:     319762  USELESS:      66450
cpu0_ITLB AVERAGE iMISS LATENCY: 5.27564 cycles
cpu0_ITLB AVERAGE dMISS LATENCY: 0 cycles
cpu0_ITLB AVERAGE itMISS LATENCY: 0 cycles
cpu0_ITLB AVERAGE dtMISS LATENCY: 0 cycles
cpu0_ITLB PAGE CROSSINGS (TLB HIT):         0 
cpu0_ITLB PAGE CROSSINGS (TLB MISS):         0 
cpu0_ITLB AVERAGE MISS LATENCY: 5.27564 cycles
cpu0_DTLB TOTAL       ACCESS:   27640203  HIT:   25605677  MISS:    2034526  iACCESS:          0  iHIT:          0  iMISS:          0  dACCESS:   27640203  dHIT:   25605677  dMISS:    2034526  itACCESS:          0  itHIT:          0  itMISS:          0  dtACCESS:          0  dtHIT:          0  dtMISS:          0
cpu0_DTLB LOAD         ACCESS:   27640203  HIT:   25605677  MISS:    2034526  iACCESS:          0  iHIT:          0  iMISS:          0  dACCESS:   27640203  dHIT:   25605677  dMISS:    2034526  itACCESS:          0  itHIT:          0  itMISS:          0  dtACCESS:          0  dtHIT:          0  dtMISS:          0
cpu0_DTLB RFO          ACCESS:          0  HIT:          0  MISS:          0  iACCESS:          0  iHIT:          0  iMISS:          0  dACCESS:          0  dHIT:          0  dMISS:          0  itACCESS:          0  itHIT:          0  itMISS:          0  dtACCESS:          0  dtHIT:          0  dtMISS:          0
cpu0_DTLB PREFETCH     ACCESS:          0  HIT:          0  MISS:          0  iACCESS:          0  iHIT:          0  iMISS:          0  dACCESS:          0  dHIT:          0  dMISS:          0  itACCESS:          0  itHIT:          0  itMISS:          0  dtACCESS:          0  dtHIT:          0  dtMISS:          0
cpu0_DTLB WRITE        ACCESS:          0  HIT:          0  MISS:          0  iACCESS:          0  iHIT:          0  iMISS:          0  dACCESS:          0  dHIT:          0  dMISS:          0  itACCESS:          0  itHIT:          0  itMISS:          0  dtACCESS:          0  dtHIT:          0  dtMISS:          0
cpu0_DTLB TRANSLATION  ACCESS:          0  HIT:          0  MISS:          0  iACCESS:          0  iHIT:          0  iMISS:          0  dACCESS:          0  dHIT:          0  dMISS:          0  itACCESS:          0  itHIT:          0  itMISS:          0  dtACCESS:          0  dtHIT:          0  dtMISS:          0
cpu0_DTLB PREFETCH  REQUESTED:          0  ISSUED:          0  CROSSED:          0  USEFUL:          0  USELESS:          0
cpu0_DTLB AVERAGE iMISS LATENCY: 0 cycles
cpu0_DTLB AVERAGE dMISS LATENCY: 14.9173 cycles
cpu0_DTLB AVERAGE itMISS LATENCY: 0 cycles
cpu0_DTLB AVERAGE dtMISS LATENCY: 0 cycles
cpu0_DTLB PAGE CROSSINGS (TLB HIT):         0 
cpu0_DTLB PAGE CROSSINGS (TLB MISS):         0 
cpu0_DTLB AVERAGE MISS LATENCY: 14.9173 cycles
cpu0_STLB TOTAL       ACCESS:    1624896  HIT:    1448796  MISS:     176100  iACCESS:     386233  iHIT:     322575  iMISS:      63658  dACCESS:    1238663  dHIT:    1126221  dMISS:     112442  itACCESS:          0  itHIT:          0  itMISS:          0  dtACCESS:          0  dtHIT:          0  dtMISS:          0
cpu0_STLB LOAD         ACCESS:    1624896  HIT:    1448796  MISS:     176100  iACCESS:     386233  iHIT:     322575  iMISS:      63658  dACCESS:    1238663  dHIT:    1126221  dMISS:     112442  itACCESS:          0  itHIT:          0  itMISS:          0  dtACCESS:          0  dtHIT:          0  dtMISS:          0
cpu0_STLB RFO          ACCESS:          0  HIT:          0  MISS:          0  iACCESS:          0  iHIT:          0  iMISS:          0  dACCESS:          0  dHIT:          0  dMISS:          0  itACCESS:          0  itHIT:          0  itMISS:          0  dtACCESS:          0  dtHIT:          0  dtMISS:          0
cpu0_STLB PREFETCH     ACCESS:          0  HIT:          0  MISS:          0  iACCESS:          0  iHIT:          0  iMISS:          0  dACCESS:          0  dHIT:          0  dMISS:          0  itACCESS:          0  itHIT:          0  itMISS:          0  dtACCESS:          0  dtHIT:          0  dtMISS:          0
cpu0_STLB WRITE        ACCESS:          0  HIT:          0  MISS:          0  iACCESS:          0  iHIT:          0  iMISS:          0  dACCESS:          0  dHIT:          0  dMISS:          0  itACCESS:          0  itHIT:          0  itMISS:          0  dtACCESS:          0  dtHIT:          0  dtMISS:          0
cpu0_STLB TRANSLATION  ACCESS:          0  HIT:          0  MISS:          0  iACCESS:          0  iHIT:          0  iMISS:          0  dACCESS:          0  dHIT:          0  dMISS:          0  itACCESS:          0  itHIT:          0  itMISS:          0  dtACCESS:          0  dtHIT:          0  dtMISS:          0
cpu0_STLB PREFETCH  REQUESTED:          0  ISSUED:          0  CROSSED:          0  USEFUL:          0  USELESS:          0
cpu0_STLB AVERAGE iMISS LATENCY: 41.7987 cycles
cpu0_STLB AVERAGE dMISS LATENCY: 116.237 cycles
cpu0_STLB AVERAGE itMISS LATENCY: 0 cycles
cpu0_STLB AVERAGE dtMISS LATENCY: 0 cycles
cpu0_STLB PAGE CROSSINGS (TLB HIT):         0 
cpu0_STLB PAGE CROSSINGS (TLB MISS):         0 
cpu0_STLB AVERAGE MISS LATENCY: 158.036 cycles
cpu0_L1D TOTAL       ACCESS:   41327599  HIT:   37894796  MISS:    3432803  iACCESS:          0  iHIT:          0  iMISS:          0  dACCESS:   41090233  dHIT:   37873161  dMISS:    3217072  itACCESS:      69349  itHIT:       9929  itMISS:      59420  dtACCESS:     168017  dtHIT:      11706  dtMISS:     156311
cpu0_L1D LOAD         ACCESS:   18842088  HIT:   17374859  MISS:    1467229  iACCESS:          0  iHIT:          0  iMISS:          0  dACCESS:   18842088  dHIT:   17374859  dMISS:    1467229  itACCESS:          0  itHIT:          0  itMISS:          0  dtACCESS:          0  dtHIT:          0  dtMISS:          0
cpu0_L1D RFO          ACCESS:          0  HIT:          0  MISS:          0  iACCESS:          0  iHIT:          0  iMISS:          0  dACCESS:          0  dHIT:          0  dMISS:          0  itACCESS:          0  itHIT:          0  itMISS:          0  dtACCESS:          0  dtHIT:          0  dtMISS:          0
cpu0_L1D PREFETCH     ACCESS:   12060509  HIT:   10743864  MISS:    1316645  iACCESS:          0  iHIT:          0  iMISS:          0  dACCESS:   12060509  dHIT:   10743864  dMISS:    1316645  itACCESS:          0  itHIT:          0  itMISS:          0  dtACCESS:          0  dtHIT:          0  dtMISS:          0
cpu0_L1D WRITE        ACCESS:   10187636  HIT:    9754438  MISS:     433198  iACCESS:          0  iHIT:          0  iMISS:          0  dACCESS:   10187636  dHIT:    9754438  dMISS:     433198  itACCESS:          0  itHIT:          0  itMISS:          0  dtACCESS:          0  dtHIT:          0  dtMISS:          0
cpu0_L1D TRANSLATION  ACCESS:     237366  HIT:      21635  MISS:     215731  iACCESS:          0  iHIT:          0  iMISS:          0  dACCESS:          0  dHIT:          0  dMISS:          0  itACCESS:      69349  itHIT:       9929  itMISS:      59420  dtACCESS:     168017  dtHIT:      11706  dtMISS:     156311
cpu0_L1D PREFETCH  REQUESTED:   18842088  ISSUED:   16862676  CROSSED:          0  USEFUL:     305905  USELESS:     698865
cpu0_L1D AVERAGE iMISS LATENCY: 0 cycles
cpu0_L1D AVERAGE dMISS LATENCY: 33.3158 cycles
cpu0_L1D AVERAGE itMISS LATENCY: 1.98327 cycles
cpu0_L1D AVERAGE dtMISS LATENCY: 5.19957 cycles
cpu0_L1D PAGE CROSSINGS (TLB HIT):         0 
cpu0_L1D PAGE CROSSINGS (TLB MISS):         0 
cpu0_L1D AVERAGE MISS LATENCY: 40.4986 cycles
cpu0_L2C TOTAL       ACCESS:    6908945  HIT:    4007436  MISS:    2901509  iACCESS:    3263132  iHIT:    2177629  iMISS:    1085503  dACCESS:    3437024  dHIT:    1798614  dMISS:    1638410  itACCESS:      59420  itHIT:      10810  itMISS:      48610  dtACCESS:     149369  dtHIT:      20383  dtMISS:     128986
cpu0_L2C LOAD         ACCESS:    1718963  HIT:    1028987  MISS:     689976  iACCESS:     791400  iHIT:     550026  iMISS:     241374  dACCESS:     927563  dHIT:     478961  dMISS:     448602  itACCESS:          0  itHIT:          0  itMISS:          0  dtACCESS:          0  dtHIT:          0  dtMISS:          0
cpu0_L2C RFO          ACCESS:     156318  HIT:      71854  MISS:      84464  iACCESS:          0  iHIT:          0  iMISS:          0  dACCESS:     156318  dHIT:      71854  dMISS:      84464  itACCESS:          0  itHIT:          0  itMISS:          0  dtACCESS:          0  dtHIT:          0  dtMISS:          0
cpu0_L2C PREFETCH     ACCESS:    4539743  HIT:    2591937  MISS:    1947806  iACCESS:    2471732  iHIT:    1627603  iMISS:     844129  dACCESS:    2068011  dHIT:     964334  dMISS:    1103677  itACCESS:          0  itHIT:          0  itMISS:          0  dtACCESS:          0  dtHIT:          0  dtMISS:          0
cpu0_L2C WRITE        ACCESS:     285132  HIT:     283465  MISS:       1667  iACCESS:          0  iHIT:          0  iMISS:          0  dACCESS:     285132  dHIT:     283465  dMISS:       1667  itACCESS:          0  itHIT:          0  itMISS:          0  dtACCESS:          0  dtHIT:          0  dtMISS:          0
cpu0_L2C TRANSLATION  ACCESS:     208789  HIT:      31193  MISS:     177596  iACCESS:          0  iHIT:          0  iMISS:          0  dACCESS:          0  dHIT:          0  dMISS:          0  itACCESS:      59420  itHIT:      10810  itMISS:      48610  dtACCESS:     149369  dtHIT:      20383  dtMISS:     128986
cpu0_L2C PREFETCH  REQUESTED:    1310240  ISSUED:    1310240  CROSSED:          0  USEFUL:     306781  USELESS:     223489
cpu0_L2C AVERAGE iMISS LATENCY: 25.1715 cycles
cpu0_L2C AVERAGE dMISS LATENCY: 46.1682 cycles
cpu0_L2C AVERAGE itMISS LATENCY: 2.14485 cycles
cpu0_L2C AVERAGE dtMISS LATENCY: 5.63996 cycles
cpu0_L2C PAGE CROSSINGS (TLB HIT):         0 
cpu0_L2C PAGE CROSSINGS (TLB MISS):         0 
cpu0_L2C AVERAGE MISS LATENCY: 79.1244 cycles
LLC TOTAL       ACCESS:    2931505  HIT:    1818646  MISS:    1112859  iACCESS:    1032169  iHIT:     671016  iMISS:     361153  dACCESS:    1721740  dHIT:    1078552  dMISS:     643188  itACCESS:      48610  itHIT:      17791  itMISS:      30819  dtACCESS:     128986  dtHIT:      51287  dtMISS:      77699
LLC LOAD         ACCESS:     688697  HIT:     443974  MISS:     244723  iACCESS:     240242  iHIT:     162054  iMISS:      78188  dACCESS:     448455  dHIT:     281920  dMISS:     166535  itACCESS:          0  itHIT:          0  itMISS:          0  dtACCESS:          0  dtHIT:          0  dtMISS:          0
LLC RFO          ACCESS:      84459  HIT:      48370  MISS:      36089  iACCESS:          0  iHIT:          0  iMISS:          0  dACCESS:      84459  dHIT:      48370  dMISS:      36089  itACCESS:          0  itHIT:          0  itMISS:          0  dtACCESS:          0  dtHIT:          0  dtMISS:          0
LLC PREFETCH     ACCESS:    1844512  HIT:    1127341  MISS:     717171  iACCESS:     791927  iHIT:     508962  iMISS:     282965  dACCESS:    1052585  dHIT:     618379  dMISS:     434206  itACCESS:          0  itHIT:          0  itMISS:          0  dtACCESS:          0  dtHIT:          0  dtMISS:          0
LLC WRITE        ACCESS:     136241  HIT:     129883  MISS:       6358  iACCESS:          0  iHIT:          0  iMISS:          0  dACCESS:     136241  dHIT:     129883  dMISS:       6358  itACCESS:          0  itHIT:          0  itMISS:          0  dtACCESS:          0  dtHIT:          0  dtMISS:          0
LLC TRANSLATION  ACCESS:     177596  HIT:      69078  MISS:     108518  iACCESS:          0  iHIT:          0  iMISS:          0  dACCESS:          0  dHIT:          0  dMISS:          0  itACCESS:      48610  itHIT:      17791  itMISS:      30819  dtACCESS:     128986  dtHIT:      51287  dtMISS:      77699
LLC PREFETCH  REQUESTED:          0  ISSUED:          0  CROSSED:          0  USEFUL:          0  USELESS:          0
LLC AVERAGE iMISS LATENCY: 47.5972 cycles
LLC AVERAGE dMISS LATENCY: 92.7879 cycles
LLC AVERAGE itMISS LATENCY: 4.73617 cycles
LLC AVERAGE dtMISS LATENCY: 12.4395 cycles
LLC PAGE CROSSINGS (TLB HIT):         0 
LLC PAGE CROSSINGS (TLB MISS):         0 
LLC AVERAGE MISS LATENCY: 157.561 cycles

PageTableWalker TOTAL       ACCESS:      87910  
PageTableWalker AVERAGE LATENCY: 5.28301 cycles
PageTableWalker TOTAL LATENCY: 464429 cycles

DRAM Statistics
Channel 0
 RQ ROW_BUFFER_HIT:     295257
  ROW_BUFFER_MISS:     811155
 AVG DBUS CONGESTED CYCLE:     3.6117
 WQ ROW_BUFFER_HIT:      21971
  ROW_BUFFER_MISS:      20912  FULL:          0

