last_page:0x200000000000000
VMEM_RES_CAP:0x100000
PAGE_SIZE:4096
LOG2_PAGE_SIZE:12
LOG2_PAGE_TABLE_SIZE:9
page_table_levels:5
WARNING: physical memory size is smaller than virtual memory size
FDiP enabled with aggresivity 16

*** ChampSim Multicore Out-of-Order Simulator ***

Warmup Instructions: 50000000
Simulation Instructions: 100000000
Number of CPUs: 1
Small page size: 4096
Large page size: 2097152

CPU 0 Bimodal branch predictor
Basic BTB sets: 1024 ways: 8 indirect buffer size: 4096 RAS size: 64
Instruction page size distrubution: 0
Loading instruction page size distribution from /home/bsc/bsc018186/scratch/itp_asplos25_AE/dump/srv21_ap.pdst
Data page size distrubution: 0
Loading data page size distribution from /home/bsc/bsc018186/scratch/itp_asplos25_AE/dump/srv21_ap.pdst
cpu0_L2C IP-based stride prefetcher
cpu0_L1D next line prefetcher
cpu0_STLB using iTP with max lru@8
cpu0_STLB using iTP with instr@0 and data@2
Init sat counter with 3 bits (max:50).
cpu0_L1I next line prefetcher
Off-chip DRAM Size: 4 GiB Channels: 1 Width: 64-bit Data Rate: 3200 MT/s
Heartbeat CPU 0 instructions: 10000001 cycles: 2500329 heartbeat IPC: 3.99948 cumulative IPC: 3.99948 (Simulation time: 0 hr 0 min 39 sec) 
Heartbeat CPU 0 instructions: 20000002 cycles: 5459208 heartbeat IPC: 3.37966 cumulative IPC: 3.66354 (Simulation time: 0 hr 1 min 20 sec) 
Heartbeat CPU 0 instructions: 30000003 cycles: 8114840 heartbeat IPC: 3.76559 cumulative IPC: 3.69694 (Simulation time: 0 hr 2 min 0 sec) 
Heartbeat CPU 0 instructions: 40000000 cycles: 10614850 heartbeat IPC: 3.99999 cumulative IPC: 3.76831 (Simulation time: 0 hr 2 min 42 sec) 
Heartbeat CPU 0 instructions: 50000000 cycles: 13114876 heartbeat IPC: 3.99996 cumulative IPC: 3.81247 (Simulation time: 0 hr 3 min 23 sec) 
Warmup finished CPU 0 instructions: 50000000 cycles: 13114877 cumulative IPC: 3.81247 (Simulation time: 0 hr 3 min 23 sec) 

Warmup complete CPU 0 instructions: 50000000 cycles: 13114877 (Simulation time: 0 hr 3 min 23 sec) 

Heartbeat CPU 0 instructions: 60000002 cycles: 34553989 heartbeat IPC: 0.466438 cumulative IPC: 0.466438 (Simulation time: 0 hr 4 min 35 sec) 
Heartbeat CPU 0 instructions: 70000000 cycles: 55906061 heartbeat IPC: 0.468339 cumulative IPC: 0.467386 (Simulation time: 0 hr 5 min 48 sec) 
Heartbeat CPU 0 instructions: 80000004 cycles: 77587925 heartbeat IPC: 0.461216 cumulative IPC: 0.465311 (Simulation time: 0 hr 7 min 1 sec) 
Heartbeat CPU 0 instructions: 90000001 cycles: 98133968 heartbeat IPC: 0.486712 cumulative IPC: 0.470483 (Simulation time: 0 hr 8 min 12 sec) 
Heartbeat CPU 0 instructions: 100000002 cycles: 119510249 heartbeat IPC: 0.467809 cumulative IPC: 0.469946 (Simulation time: 0 hr 9 min 25 sec) 
*** Reached end of trace: /gpfs/projects/bsc18/MN4/bsc18/romol/ChampSim/traces/qualcomm_srv/srv21_ap.champsimtrace.xz
Heartbeat CPU 0 instructions: 110000000 cycles: 141507119 heartbeat IPC: 0.454611 cumulative IPC: 0.467318 (Simulation time: 0 hr 10 min 40 sec) 
Heartbeat CPU 0 instructions: 120000002 cycles: 154993235 heartbeat IPC: 0.741504 cumulative IPC: 0.493381 (Simulation time: 0 hr 11 min 43 sec) 
Heartbeat CPU 0 instructions: 130000000 cycles: 167305843 heartbeat IPC: 0.812176 cumulative IPC: 0.518838 (Simulation time: 0 hr 12 min 43 sec) 
Heartbeat CPU 0 instructions: 140000000 cycles: 189183889 heartbeat IPC: 0.45708 cumulative IPC: 0.511164 (Simulation time: 0 hr 13 min 56 sec) 
Heartbeat CPU 0 instructions: 150000000 cycles: 209769190 heartbeat IPC: 0.485784 cumulative IPC: 0.508507 (Simulation time: 0 hr 15 min 7 sec) 
Simulation finished CPU 0 instructions: 100000000 cycles: 196654314 cumulative IPC: 0.508507 (Simulation time: 0 hr 15 min 7 sec) 

Simulation complete CPU 0 instructions: 100000000 cycles: 196654314 (Simulation time: 0 hr 15 min 7 sec) 


ChampSim completed all CPUs

Saving instructions large page distribution to /home/bsc/bsc018186/scratch/itp_asplos25_AE/dump/srv21_ap.pdst...
Saving data large page distribution to /home/bsc/bsc018186/scratch/itp_asplos25_AE/dump/srv21_ap.pdst...
=== Simulation ===
CPU 0 runs /gpfs/projects/bsc18/MN4/bsc18/romol/ChampSim/traces/qualcomm_srv/srv21_ap.champsimtrace.xz

Region of Interest Statistics

CPU 0 cumulative IPC: 0.508507 instructions: 100000000 cycles: 196654314
CPU 0 Branch Prediction Accuracy: 82.7116% MPKI: 33.4932 Average ROB Occupancy at Mispredict: 11.5132
Branch type MPKI
BRANCH_DIRECT_JUMP: 1.22765
BRANCH_INDIRECT: 16.8543
BRANCH_CONDITIONAL: 10.7433
BRANCH_DIRECT_CALL: 2.31867
BRANCH_INDIRECT_CALL: 0.711831
BRANCH_RETURN: 1.63759

Instructions large pages: 0
Instructions small pages: 1397
Large page distribution for instructions: 0%

Data large pages: 0
Data small pages: 5144
Large page distribution for data: 0%

cpu0_L1I TOTAL       ACCESS:   34621138  HIT:   27498890  MISS:    7122248  iACCESS:   34621138  iHIT:   27498890  iMISS:    7122248  dACCESS:          0  dHIT:          0  dMISS:          0  itACCESS:          0  itHIT:          0  itMISS:          0  dtACCESS:          0  dtHIT:          0  dtMISS:          0
cpu0_L1I LOAD         ACCESS:    9151796  HIT:    7191457  MISS:    1960339  iACCESS:    9151796  iHIT:    7191457  iMISS:    1960339  dACCESS:          0  dHIT:          0  dMISS:          0  itACCESS:          0  itHIT:          0  itMISS:          0  dtACCESS:          0  dtHIT:          0  dtMISS:          0
cpu0_L1I RFO          ACCESS:          0  HIT:          0  MISS:          0  iACCESS:          0  iHIT:          0  iMISS:          0  dACCESS:          0  dHIT:          0  dMISS:          0  itACCESS:          0  itHIT:          0  itMISS:          0  dtACCESS:          0  dtHIT:          0  dtMISS:          0
cpu0_L1I PREFETCH     ACCESS:   25469342  HIT:   20307433  MISS:    5161909  iACCESS:   25469342  iHIT:   20307433  iMISS:    5161909  dACCESS:          0  dHIT:          0  dMISS:          0  itACCESS:          0  itHIT:          0  itMISS:          0  dtACCESS:          0  dtHIT:          0  dtMISS:          0
cpu0_L1I WRITE        ACCESS:          0  HIT:          0  MISS:          0  iACCESS:          0  iHIT:          0  iMISS:          0  dACCESS:          0  dHIT:          0  dMISS:          0  itACCESS:          0  itHIT:          0  itMISS:          0  dtACCESS:          0  dtHIT:          0  dtMISS:          0
cpu0_L1I TRANSLATION  ACCESS:          0  HIT:          0  MISS:          0  iACCESS:          0  iHIT:          0  iMISS:          0  dACCESS:          0  dHIT:          0  dMISS:          0  itACCESS:          0  itHIT:          0  itMISS:          0  dtACCESS:          0  dtHIT:          0  dtMISS:          0
cpu0_L1I PREFETCH  REQUESTED:   27552820  ISSUED:   27552820  CROSSED:          0  USEFUL:    1779642  USELESS:     601503
cpu0_L1I AVERAGE iMISS LATENCY: 20.8536 cycles
cpu0_L1I AVERAGE dMISS LATENCY: 0 cycles
cpu0_L1I AVERAGE itMISS LATENCY: 0 cycles
cpu0_L1I AVERAGE dtMISS LATENCY: 0 cycles
cpu0_L1I PAGE CROSSINGS (TLB HIT):         0 
cpu0_L1I PAGE CROSSINGS (TLB MISS):         0 
cpu0_L1I AVERAGE MISS LATENCY: 20.8536 cycles
cpu0_ITLB TOTAL       ACCESS:   29337133  HIT:   27576234  MISS:    1760899  iACCESS:   29337133  iHIT:   27576234  iMISS:    1760899  dACCESS:          0  dHIT:          0  dMISS:          0  itACCESS:          0  itHIT:          0  itMISS:          0  dtACCESS:          0  dtHIT:          0  dtMISS:          0
cpu0_ITLB LOAD         ACCESS:   29337133  HIT:   27576234  MISS:    1760899  iACCESS:   29337133  iHIT:   27576234  iMISS:    1760899  dACCESS:          0  dHIT:          0  dMISS:          0  itACCESS:          0  itHIT:          0  itMISS:          0  dtACCESS:          0  dtHIT:          0  dtMISS:          0
cpu0_ITLB RFO          ACCESS:          0  HIT:          0  MISS:          0  iACCESS:          0  iHIT:          0  iMISS:          0  dACCESS:          0  dHIT:          0  dMISS:          0  itACCESS:          0  itHIT:          0  itMISS:          0  dtACCESS:          0  dtHIT:          0  dtMISS:          0
cpu0_ITLB PREFETCH     ACCESS:          0  HIT:          0  MISS:          0  iACCESS:          0  iHIT:          0  iMISS:          0  dACCESS:          0  dHIT:          0  dMISS:          0  itACCESS:          0  itHIT:          0  itMISS:          0  dtACCESS:          0  dtHIT:          0  dtMISS:          0
cpu0_ITLB WRITE        ACCESS:          0  HIT:          0  MISS:          0  iACCESS:          0  iHIT:          0  iMISS:          0  dACCESS:          0  dHIT:          0  dMISS:          0  itACCESS:          0  itHIT:          0  itMISS:          0  dtACCESS:          0  dtHIT:          0  dtMISS:          0
cpu0_ITLB TRANSLATION  ACCESS:          0  HIT:          0  MISS:          0  iACCESS:          0  iHIT:          0  iMISS:          0  dACCESS:          0  dHIT:          0  dMISS:          0  itACCESS:          0  itHIT:          0  itMISS:          0  dtACCESS:          0  dtHIT:          0  dtMISS:          0
cpu0_ITLB PREFETCH  REQUESTED:          0  ISSUED:          0  CROSSED:          0  USEFUL:     299327  USELESS:      57534
cpu0_ITLB AVERAGE iMISS LATENCY: 3.84472 cycles
cpu0_ITLB AVERAGE dMISS LATENCY: 0 cycles
cpu0_ITLB AVERAGE itMISS LATENCY: 0 cycles
cpu0_ITLB AVERAGE dtMISS LATENCY: 0 cycles
cpu0_ITLB PAGE CROSSINGS (TLB HIT):         0 
cpu0_ITLB PAGE CROSSINGS (TLB MISS):         0 
cpu0_ITLB AVERAGE MISS LATENCY: 3.84472 cycles
cpu0_DTLB TOTAL       ACCESS:   29897136  HIT:   25605728  MISS:    4291408  iACCESS:          0  iHIT:          0  iMISS:          0  dACCESS:   29897136  dHIT:   25605728  dMISS:    4291408  itACCESS:          0  itHIT:          0  itMISS:          0  dtACCESS:          0  dtHIT:          0  dtMISS:          0
cpu0_DTLB LOAD         ACCESS:   29897136  HIT:   25605728  MISS:    4291408  iACCESS:          0  iHIT:          0  iMISS:          0  dACCESS:   29897136  dHIT:   25605728  dMISS:    4291408  itACCESS:          0  itHIT:          0  itMISS:          0  dtACCESS:          0  dtHIT:          0  dtMISS:          0
cpu0_DTLB RFO          ACCESS:          0  HIT:          0  MISS:          0  iACCESS:          0  iHIT:          0  iMISS:          0  dACCESS:          0  dHIT:          0  dMISS:          0  itACCESS:          0  itHIT:          0  itMISS:          0  dtACCESS:          0  dtHIT:          0  dtMISS:          0
cpu0_DTLB PREFETCH     ACCESS:          0  HIT:          0  MISS:          0  iACCESS:          0  iHIT:          0  iMISS:          0  dACCESS:          0  dHIT:          0  dMISS:          0  itACCESS:          0  itHIT:          0  itMISS:          0  dtACCESS:          0  dtHIT:          0  dtMISS:          0
cpu0_DTLB WRITE        ACCESS:          0  HIT:          0  MISS:          0  iACCESS:          0  iHIT:          0  iMISS:          0  dACCESS:          0  dHIT:          0  dMISS:          0  itACCESS:          0  itHIT:          0  itMISS:          0  dtACCESS:          0  dtHIT:          0  dtMISS:          0
cpu0_DTLB TRANSLATION  ACCESS:          0  HIT:          0  MISS:          0  iACCESS:          0  iHIT:          0  iMISS:          0  dACCESS:          0  dHIT:          0  dMISS:          0  itACCESS:          0  itHIT:          0  itMISS:          0  dtACCESS:          0  dtHIT:          0  dtMISS:          0
cpu0_DTLB PREFETCH  REQUESTED:          0  ISSUED:          0  CROSSED:          0  USEFUL:          0  USELESS:          0
cpu0_DTLB AVERAGE iMISS LATENCY: 0 cycles
cpu0_DTLB AVERAGE dMISS LATENCY: 12.4298 cycles
cpu0_DTLB AVERAGE itMISS LATENCY: 0 cycles
cpu0_DTLB AVERAGE dtMISS LATENCY: 0 cycles
cpu0_DTLB PAGE CROSSINGS (TLB HIT):         0 
cpu0_DTLB PAGE CROSSINGS (TLB MISS):         0 
cpu0_DTLB AVERAGE MISS LATENCY: 12.4298 cycles
cpu0_STLB TOTAL       ACCESS:    2633963  HIT:    2435730  MISS:     198233  iACCESS:     356866  iHIT:     333661  iMISS:      23205  dACCESS:    2277097  dHIT:    2102069  dMISS:     175028  itACCESS:          0  itHIT:          0  itMISS:          0  dtACCESS:          0  dtHIT:          0  dtMISS:          0
cpu0_STLB LOAD         ACCESS:    2633963  HIT:    2435730  MISS:     198233  iACCESS:     356866  iHIT:     333661  iMISS:      23205  dACCESS:    2277097  dHIT:    2102069  dMISS:     175028  itACCESS:          0  itHIT:          0  itMISS:          0  dtACCESS:          0  dtHIT:          0  dtMISS:          0
cpu0_STLB RFO          ACCESS:          0  HIT:          0  MISS:          0  iACCESS:          0  iHIT:          0  iMISS:          0  dACCESS:          0  dHIT:          0  dMISS:          0  itACCESS:          0  itHIT:          0  itMISS:          0  dtACCESS:          0  dtHIT:          0  dtMISS:          0
cpu0_STLB PREFETCH     ACCESS:          0  HIT:          0  MISS:          0  iACCESS:          0  iHIT:          0  iMISS:          0  dACCESS:          0  dHIT:          0  dMISS:          0  itACCESS:          0  itHIT:          0  itMISS:          0  dtACCESS:          0  dtHIT:          0  dtMISS:          0
cpu0_STLB WRITE        ACCESS:          0  HIT:          0  MISS:          0  iACCESS:          0  iHIT:          0  iMISS:          0  dACCESS:          0  dHIT:          0  dMISS:          0  itACCESS:          0  itHIT:          0  itMISS:          0  dtACCESS:          0  dtHIT:          0  dtMISS:          0
cpu0_STLB TRANSLATION  ACCESS:          0  HIT:          0  MISS:          0  iACCESS:          0  iHIT:          0  iMISS:          0  dACCESS:          0  dHIT:          0  dMISS:          0  itACCESS:          0  itHIT:          0  itMISS:          0  dtACCESS:          0  dtHIT:          0  dtMISS:          0
cpu0_STLB PREFETCH  REQUESTED:          0  ISSUED:          0  CROSSED:          0  USEFUL:          0  USELESS:          0
cpu0_STLB AVERAGE iMISS LATENCY: 20.0961 cycles
cpu0_STLB AVERAGE dMISS LATENCY: 175.861 cycles
cpu0_STLB AVERAGE itMISS LATENCY: 0 cycles
cpu0_STLB AVERAGE dtMISS LATENCY: 0 cycles
cpu0_STLB PAGE CROSSINGS (TLB HIT):         0 
cpu0_STLB PAGE CROSSINGS (TLB MISS):         0 
cpu0_STLB AVERAGE MISS LATENCY: 195.957 cycles
cpu0_L1D TOTAL       ACCESS:   45391279  HIT:   39118959  MISS:    6272320  iACCESS:          0  iHIT:          0  iMISS:          0  dACCESS:   45125376  dHIT:   39101533  dMISS:    6023843  itACCESS:      26656  itHIT:       2170  itMISS:      24486  dtACCESS:     239247  dtHIT:      15256  dtMISS:     223991
cpu0_L1D LOAD         ACCESS:   21773480  HIT:   18174023  MISS:    3599457  iACCESS:          0  iHIT:          0  iMISS:          0  dACCESS:   21773480  dHIT:   18174023  dMISS:    3599457  itACCESS:          0  itHIT:          0  itMISS:          0  dtACCESS:          0  dtHIT:          0  dtMISS:          0
cpu0_L1D RFO          ACCESS:          0  HIT:          0  MISS:          0  iACCESS:          0  iHIT:          0  iMISS:          0  dACCESS:          0  dHIT:          0  dMISS:          0  itACCESS:          0  itHIT:          0  itMISS:          0  dtACCESS:          0  dtHIT:          0  dtMISS:          0
cpu0_L1D PREFETCH     ACCESS:   13500690  HIT:   11542858  MISS:    1957832  iACCESS:          0  iHIT:          0  iMISS:          0  dACCESS:   13500690  dHIT:   11542858  dMISS:    1957832  itACCESS:          0  itHIT:          0  itMISS:          0  dtACCESS:          0  dtHIT:          0  dtMISS:          0
cpu0_L1D WRITE        ACCESS:    9851206  HIT:    9384652  MISS:     466554  iACCESS:          0  iHIT:          0  iMISS:          0  dACCESS:    9851206  dHIT:    9384652  dMISS:     466554  itACCESS:          0  itHIT:          0  itMISS:          0  dtACCESS:          0  dtHIT:          0  dtMISS:          0
cpu0_L1D TRANSLATION  ACCESS:     265903  HIT:      17426  MISS:     248477  iACCESS:          0  iHIT:          0  iMISS:          0  dACCESS:          0  dHIT:          0  dMISS:          0  itACCESS:      26656  itHIT:       2170  itMISS:      24486  dtACCESS:     239247  dtHIT:      15256  dtMISS:     223991
cpu0_L1D PREFETCH  REQUESTED:   21773480  ISSUED:   17693169  CROSSED:          0  USEFUL:     276389  USELESS:     781149
cpu0_L1D AVERAGE iMISS LATENCY: 0 cycles
cpu0_L1D AVERAGE dMISS LATENCY: 29.5262 cycles
cpu0_L1D AVERAGE itMISS LATENCY: 0.599239 cycles
cpu0_L1D AVERAGE dtMISS LATENCY: 5.19068 cycles
cpu0_L1D PAGE CROSSINGS (TLB HIT):         0 
cpu0_L1D PAGE CROSSINGS (TLB MISS):         0 
cpu0_L1D AVERAGE MISS LATENCY: 35.3161 cycles
cpu0_L2C TOTAL       ACCESS:    8439343  HIT:    5145553  MISS:    3293790  iACCESS:    3046878  iHIT:    1810386  iMISS:    1236492  dACCESS:    5149220  dHIT:    3296256  dMISS:    1852964  itACCESS:      24350  itHIT:       3445  itMISS:      20905  dtACCESS:     218895  dtHIT:      35466  dtMISS:     183429
cpu0_L2C LOAD         ACCESS:    3235410  HIT:    2491284  MISS:     744126  iACCESS:     698490  iHIT:     446357  iMISS:     252133  dACCESS:    2536920  dHIT:    2044927  dMISS:     491993  itACCESS:          0  itHIT:          0  itMISS:          0  dtACCESS:          0  dtHIT:          0  dtMISS:          0
cpu0_L2C RFO          ACCESS:     171378  HIT:      76914  MISS:      94464  iACCESS:          0  iHIT:          0  iMISS:          0  dACCESS:     171378  dHIT:      76914  dMISS:      94464  itACCESS:          0  itHIT:          0  itMISS:          0  dtACCESS:          0  dtHIT:          0  dtMISS:          0
cpu0_L2C PREFETCH     ACCESS:    4542171  HIT:    2292975  MISS:    2249196  iACCESS:    2348388  iHIT:    1364029  iMISS:     984359  dACCESS:    2193783  dHIT:     928946  dMISS:    1264837  itACCESS:          0  itHIT:          0  itMISS:          0  dtACCESS:          0  dtHIT:          0  dtMISS:          0
cpu0_L2C WRITE        ACCESS:     247139  HIT:     245469  MISS:       1670  iACCESS:          0  iHIT:          0  iMISS:          0  dACCESS:     247139  dHIT:     245469  dMISS:       1670  itACCESS:          0  itHIT:          0  itMISS:          0  dtACCESS:          0  dtHIT:          0  dtMISS:          0
cpu0_L2C TRANSLATION  ACCESS:     243245  HIT:      38911  MISS:     204334  iACCESS:          0  iHIT:          0  iMISS:          0  dACCESS:          0  dHIT:          0  dMISS:          0  itACCESS:      24350  itHIT:       3445  itMISS:      20905  dtACCESS:     218895  dtHIT:      35466  dtMISS:     183429
cpu0_L2C PREFETCH  REQUESTED:    1364362  ISSUED:    1364325  CROSSED:          0  USEFUL:     317489  USELESS:     280480
cpu0_L2C AVERAGE iMISS LATENCY: 37.0993 cycles
cpu0_L2C AVERAGE dMISS LATENCY: 63.5056 cycles
cpu0_L2C AVERAGE itMISS LATENCY: 1.06798 cycles
cpu0_L2C AVERAGE dtMISS LATENCY: 9.22655 cycles
cpu0_L2C PAGE CROSSINGS (TLB HIT):         0 
cpu0_L2C PAGE CROSSINGS (TLB MISS):         0 
cpu0_L2C AVERAGE MISS LATENCY: 110.9 cycles
LLC TOTAL       ACCESS:    3246854  HIT:    1350150  MISS:    1896704  iACCESS:    1160801  iHIT:     494642  iMISS:     666159  dACCESS:    1881719  dHIT:     809205  dMISS:    1072514  itACCESS:      20905  itHIT:       3416  itMISS:      17489  dtACCESS:     183429  dtHIT:      42887  dtMISS:     140542
LLC LOAD         ACCESS:     738509  HIT:     326449  MISS:     412060  iACCESS:     251076  iHIT:     112209  iMISS:     138867  dACCESS:     487433  dHIT:     214240  dMISS:     273193  itACCESS:          0  itHIT:          0  itMISS:          0  dtACCESS:          0  dtHIT:          0  dtMISS:          0
LLC RFO          ACCESS:      94452  HIT:      32593  MISS:      61859  iACCESS:          0  iHIT:          0  iMISS:          0  dACCESS:      94452  dHIT:      32593  dMISS:      61859  itACCESS:          0  itHIT:          0  itMISS:          0  dtACCESS:          0  dtHIT:          0  dtMISS:          0
LLC PREFETCH     ACCESS:    2076729  HIT:     819655  MISS:    1257074  iACCESS:     909725  iHIT:     382433  iMISS:     527292  dACCESS:    1167004  dHIT:     437222  dMISS:     729782  itACCESS:          0  itHIT:          0  itMISS:          0  dtACCESS:          0  dtHIT:          0  dtMISS:          0
LLC WRITE        ACCESS:     132830  HIT:     125150  MISS:       7680  iACCESS:          0  iHIT:          0  iMISS:          0  dACCESS:     132830  dHIT:     125150  dMISS:       7680  itACCESS:          0  itHIT:          0  itMISS:          0  dtACCESS:          0  dtHIT:          0  dtMISS:          0
LLC TRANSLATION  ACCESS:     204334  HIT:      46303  MISS:     158031  iACCESS:          0  iHIT:          0  iMISS:          0  dACCESS:          0  dHIT:          0  dMISS:          0  itACCESS:      20905  itHIT:       3416  itMISS:      17489  dtACCESS:     183429  dtHIT:      42887  dtMISS:     140542
LLC PREFETCH  REQUESTED:          0  ISSUED:          0  CROSSED:          0  USEFUL:          0  USELESS:          0
LLC AVERAGE iMISS LATENCY: 52.4438 cycles
LLC AVERAGE dMISS LATENCY: 93.0221 cycles
LLC AVERAGE itMISS LATENCY: 1.637 cycles
LLC AVERAGE dtMISS LATENCY: 14.12 cycles
LLC PAGE CROSSINGS (TLB HIT):         0 
LLC PAGE CROSSINGS (TLB MISS):         0 
LLC AVERAGE MISS LATENCY: 161.223 cycles

PageTableWalker TOTAL       ACCESS:      85965  
PageTableWalker AVERAGE LATENCY: 5.45618 cycles
PageTableWalker TOTAL LATENCY: 469040 cycles

DRAM Statistics
Channel 0
 RQ ROW_BUFFER_HIT:     532282
  ROW_BUFFER_MISS:    1342622
 AVG DBUS CONGESTED CYCLE:    3.63958
 WQ ROW_BUFFER_HIT:      36532
  ROW_BUFFER_MISS:      25212  FULL:          0

