last_page:0x200000000000000
VMEM_RES_CAP:0x100000
PAGE_SIZE:4096
LOG2_PAGE_SIZE:12
LOG2_PAGE_TABLE_SIZE:9
page_table_levels:5
WARNING: physical memory size is smaller than virtual memory size
FDiP enabled with aggresivity 16

*** ChampSim Multicore Out-of-Order Simulator ***

Warmup Instructions: 50000000
Simulation Instructions: 100000000
Number of CPUs: 1
Small page size: 4096
Large page size: 2097152

CPU 0 Bimodal branch predictor
Basic BTB sets: 1024 ways: 8 indirect buffer size: 4096 RAS size: 64
Instruction page size distrubution: 0
Loading instruction page size distribution from /home/bsc/bsc018186/scratch/itp_asplos25_AE/dump/srv207_ap.pdst
Data page size distrubution: 0
Loading data page size distribution from /home/bsc/bsc018186/scratch/itp_asplos25_AE/dump/srv207_ap.pdst
cpu0_L2C IP-based stride prefetcher
cpu0_L2C is using PTP replacement policy:
	TLB_STRESS_THRESHOLD:0
	PTE_EVICTION_RATIO:0
cpu0_L1D next line prefetcher
CHiRPing...
cpu0_L1I next line prefetcher
Off-chip DRAM Size: 4 GiB Channels: 1 Width: 64-bit Data Rate: 3200 MT/s
Heartbeat CPU 0 instructions: 10000003 cycles: 2501481 heartbeat IPC: 3.99764 cumulative IPC: 3.99764 (Simulation time: 0 hr 0 min 37 sec) 
Heartbeat CPU 0 instructions: 20000002 cycles: 5001898 heartbeat IPC: 3.99934 cumulative IPC: 3.99849 (Simulation time: 0 hr 1 min 17 sec) 
Heartbeat CPU 0 instructions: 30000003 cycles: 7502085 heartbeat IPC: 3.99971 cumulative IPC: 3.99889 (Simulation time: 0 hr 1 min 58 sec) 
Heartbeat CPU 0 instructions: 40000001 cycles: 10002409 heartbeat IPC: 3.99949 cumulative IPC: 3.99904 (Simulation time: 0 hr 2 min 40 sec) 
Heartbeat CPU 0 instructions: 50000000 cycles: 12502635 heartbeat IPC: 3.99964 cumulative IPC: 3.99916 (Simulation time: 0 hr 3 min 22 sec) 
Warmup finished CPU 0 instructions: 50000000 cycles: 12502636 cumulative IPC: 3.99916 (Simulation time: 0 hr 3 min 22 sec) 

Warmup complete CPU 0 instructions: 50000000 cycles: 12502636 (Simulation time: 0 hr 3 min 22 sec) 

Heartbeat CPU 0 instructions: 60000003 cycles: 33320809 heartbeat IPC: 0.48035 cumulative IPC: 0.48035 (Simulation time: 0 hr 4 min 35 sec) 
Heartbeat CPU 0 instructions: 70000001 cycles: 55141512 heartbeat IPC: 0.458281 cumulative IPC: 0.469056 (Simulation time: 0 hr 5 min 49 sec) 
Heartbeat CPU 0 instructions: 80000000 cycles: 76353448 heartbeat IPC: 0.471433 cumulative IPC: 0.469846 (Simulation time: 0 hr 7 min 3 sec) 
Heartbeat CPU 0 instructions: 90000002 cycles: 98065883 heartbeat IPC: 0.460566 cumulative IPC: 0.467491 (Simulation time: 0 hr 8 min 18 sec) 
Heartbeat CPU 0 instructions: 100000002 cycles: 119500967 heartbeat IPC: 0.466525 cumulative IPC: 0.467298 (Simulation time: 0 hr 9 min 34 sec) 
*** Reached end of trace: /gpfs/projects/bsc18/MN4/bsc18/romol/ChampSim/traces/qualcomm_srv/srv207_ap.champsimtrace.xz
Heartbeat CPU 0 instructions: 110000002 cycles: 142180803 heartbeat IPC: 0.440921 cumulative IPC: 0.462684 (Simulation time: 0 hr 10 min 52 sec) 
Heartbeat CPU 0 instructions: 120000004 cycles: 163862411 heartbeat IPC: 0.461221 cumulative IPC: 0.462475 (Simulation time: 0 hr 12 min 8 sec) 
Heartbeat CPU 0 instructions: 130000000 cycles: 186503177 heartbeat IPC: 0.441681 cumulative IPC: 0.459769 (Simulation time: 0 hr 13 min 25 sec) 
Heartbeat CPU 0 instructions: 140000001 cycles: 209001288 heartbeat IPC: 0.444482 cumulative IPC: 0.458019 (Simulation time: 0 hr 14 min 43 sec) 
Heartbeat CPU 0 instructions: 150000002 cycles: 232804435 heartbeat IPC: 0.420113 cumulative IPC: 0.453923 (Simulation time: 0 hr 16 min 3 sec) 
Simulation finished CPU 0 instructions: 100000002 cycles: 220301800 cumulative IPC: 0.453923 (Simulation time: 0 hr 16 min 3 sec) 

Simulation complete CPU 0 instructions: 100000002 cycles: 220301800 (Simulation time: 0 hr 16 min 3 sec) 


ChampSim completed all CPUs

Saving instructions large page distribution to /home/bsc/bsc018186/scratch/itp_asplos25_AE/dump/srv207_ap.pdst...
Saving data large page distribution to /home/bsc/bsc018186/scratch/itp_asplos25_AE/dump/srv207_ap.pdst...
=== Simulation ===
CPU 0 runs /gpfs/projects/bsc18/MN4/bsc18/romol/ChampSim/traces/qualcomm_srv/srv207_ap.champsimtrace.xz

Region of Interest Statistics

CPU 0 cumulative IPC: 0.453923 instructions: 100000002 cycles: 220301800
CPU 0 Branch Prediction Accuracy: 79.9419% MPKI: 36.2706 Average ROB Occupancy at Mispredict: 11.52
Branch type MPKI
BRANCH_DIRECT_JUMP: 1.35835
BRANCH_INDIRECT: 18.5563
BRANCH_CONDITIONAL: 11.2955
BRANCH_DIRECT_CALL: 2.47044
BRANCH_INDIRECT_CALL: 0.68596
BRANCH_RETURN: 1.90409

Instructions large pages: 0
Instructions small pages: 1279
Large page distribution for instructions: 0%

Data large pages: 0
Data small pages: 6352
Large page distribution for data: 0%

cpu0_L1I TOTAL       ACCESS:   34958065  HIT:   26957996  MISS:    8000069  iACCESS:   34958065  iHIT:   26957996  iMISS:    8000069  dACCESS:          0  dHIT:          0  dMISS:          0  itACCESS:          0  itHIT:          0  itMISS:          0  dtACCESS:          0  dtHIT:          0  dtMISS:          0
cpu0_L1I LOAD         ACCESS:    9791946  HIT:    7572340  MISS:    2219606  iACCESS:    9791946  iHIT:    7572340  iMISS:    2219606  dACCESS:          0  dHIT:          0  dMISS:          0  itACCESS:          0  itHIT:          0  itMISS:          0  dtACCESS:          0  dtHIT:          0  dtMISS:          0
cpu0_L1I RFO          ACCESS:          0  HIT:          0  MISS:          0  iACCESS:          0  iHIT:          0  iMISS:          0  dACCESS:          0  dHIT:          0  dMISS:          0  itACCESS:          0  itHIT:          0  itMISS:          0  dtACCESS:          0  dtHIT:          0  dtMISS:          0
cpu0_L1I PREFETCH     ACCESS:   25166119  HIT:   19385656  MISS:    5780463  iACCESS:   25166119  iHIT:   19385656  iMISS:    5780463  dACCESS:          0  dHIT:          0  dMISS:          0  itACCESS:          0  itHIT:          0  itMISS:          0  dtACCESS:          0  dtHIT:          0  dtMISS:          0
cpu0_L1I WRITE        ACCESS:          0  HIT:          0  MISS:          0  iACCESS:          0  iHIT:          0  iMISS:          0  dACCESS:          0  dHIT:          0  dMISS:          0  itACCESS:          0  itHIT:          0  itMISS:          0  dtACCESS:          0  dtHIT:          0  dtMISS:          0
cpu0_L1I TRANSLATION  ACCESS:          0  HIT:          0  MISS:          0  iACCESS:          0  iHIT:          0  iMISS:          0  dACCESS:          0  dHIT:          0  dMISS:          0  itACCESS:          0  itHIT:          0  itMISS:          0  dtACCESS:          0  dtHIT:          0  dtMISS:          0
cpu0_L1I PREFETCH  REQUESTED:   27413422  ISSUED:   27413249  CROSSED:          0  USEFUL:    1943698  USELESS:     698063
cpu0_L1I AVERAGE iMISS LATENCY: 21.2317 cycles
cpu0_L1I AVERAGE dMISS LATENCY: 0 cycles
cpu0_L1I AVERAGE itMISS LATENCY: 0 cycles
cpu0_L1I AVERAGE dtMISS LATENCY: 0 cycles
cpu0_L1I PAGE CROSSINGS (TLB HIT):         0 
cpu0_L1I PAGE CROSSINGS (TLB MISS):         0 
cpu0_L1I AVERAGE MISS LATENCY: 21.2317 cycles
cpu0_ITLB TOTAL       ACCESS:   29570822  HIT:   27633489  MISS:    1937333  iACCESS:   29570822  iHIT:   27633489  iMISS:    1937333  dACCESS:          0  dHIT:          0  dMISS:          0  itACCESS:          0  itHIT:          0  itMISS:          0  dtACCESS:          0  dtHIT:          0  dtMISS:          0
cpu0_ITLB LOAD         ACCESS:   29570822  HIT:   27633489  MISS:    1937333  iACCESS:   29570822  iHIT:   27633489  iMISS:    1937333  dACCESS:          0  dHIT:          0  dMISS:          0  itACCESS:          0  itHIT:          0  itMISS:          0  dtACCESS:          0  dtHIT:          0  dtMISS:          0
cpu0_ITLB RFO          ACCESS:          0  HIT:          0  MISS:          0  iACCESS:          0  iHIT:          0  iMISS:          0  dACCESS:          0  dHIT:          0  dMISS:          0  itACCESS:          0  itHIT:          0  itMISS:          0  dtACCESS:          0  dtHIT:          0  dtMISS:          0
cpu0_ITLB PREFETCH     ACCESS:          0  HIT:          0  MISS:          0  iACCESS:          0  iHIT:          0  iMISS:          0  dACCESS:          0  dHIT:          0  dMISS:          0  itACCESS:          0  itHIT:          0  itMISS:          0  dtACCESS:          0  dtHIT:          0  dtMISS:          0
cpu0_ITLB WRITE        ACCESS:          0  HIT:          0  MISS:          0  iACCESS:          0  iHIT:          0  iMISS:          0  dACCESS:          0  dHIT:          0  dMISS:          0  itACCESS:          0  itHIT:          0  itMISS:          0  dtACCESS:          0  dtHIT:          0  dtMISS:          0
cpu0_ITLB TRANSLATION  ACCESS:          0  HIT:          0  MISS:          0  iACCESS:          0  iHIT:          0  iMISS:          0  dACCESS:          0  dHIT:          0  dMISS:          0  itACCESS:          0  itHIT:          0  itMISS:          0  dtACCESS:          0  dtHIT:          0  dtMISS:          0
cpu0_ITLB PREFETCH  REQUESTED:          0  ISSUED:          0  CROSSED:          0  USEFUL:     330769  USELESS:      69958
cpu0_ITLB AVERAGE iMISS LATENCY: 7.63109 cycles
cpu0_ITLB AVERAGE dMISS LATENCY: 0 cycles
cpu0_ITLB AVERAGE itMISS LATENCY: 0 cycles
cpu0_ITLB AVERAGE dtMISS LATENCY: 0 cycles
cpu0_ITLB PAGE CROSSINGS (TLB HIT):         0 
cpu0_ITLB PAGE CROSSINGS (TLB MISS):         0 
cpu0_ITLB AVERAGE MISS LATENCY: 7.63109 cycles
cpu0_DTLB TOTAL       ACCESS:   28758397  HIT:   26818185  MISS:    1940212  iACCESS:          0  iHIT:          0  iMISS:          0  dACCESS:   28758397  dHIT:   26818185  dMISS:    1940212  itACCESS:          0  itHIT:          0  itMISS:          0  dtACCESS:          0  dtHIT:          0  dtMISS:          0
cpu0_DTLB LOAD         ACCESS:   28758397  HIT:   26818185  MISS:    1940212  iACCESS:          0  iHIT:          0  iMISS:          0  dACCESS:   28758397  dHIT:   26818185  dMISS:    1940212  itACCESS:          0  itHIT:          0  itMISS:          0  dtACCESS:          0  dtHIT:          0  dtMISS:          0
cpu0_DTLB RFO          ACCESS:          0  HIT:          0  MISS:          0  iACCESS:          0  iHIT:          0  iMISS:          0  dACCESS:          0  dHIT:          0  dMISS:          0  itACCESS:          0  itHIT:          0  itMISS:          0  dtACCESS:          0  dtHIT:          0  dtMISS:          0
cpu0_DTLB PREFETCH     ACCESS:          0  HIT:          0  MISS:          0  iACCESS:          0  iHIT:          0  iMISS:          0  dACCESS:          0  dHIT:          0  dMISS:          0  itACCESS:          0  itHIT:          0  itMISS:          0  dtACCESS:          0  dtHIT:          0  dtMISS:          0
cpu0_DTLB WRITE        ACCESS:          0  HIT:          0  MISS:          0  iACCESS:          0  iHIT:          0  iMISS:          0  dACCESS:          0  dHIT:          0  dMISS:          0  itACCESS:          0  itHIT:          0  itMISS:          0  dtACCESS:          0  dtHIT:          0  dtMISS:          0
cpu0_DTLB TRANSLATION  ACCESS:          0  HIT:          0  MISS:          0  iACCESS:          0  iHIT:          0  iMISS:          0  dACCESS:          0  dHIT:          0  dMISS:          0  itACCESS:          0  itHIT:          0  itMISS:          0  dtACCESS:          0  dtHIT:          0  dtMISS:          0
cpu0_DTLB PREFETCH  REQUESTED:          0  ISSUED:          0  CROSSED:          0  USEFUL:          0  USELESS:          0
cpu0_DTLB AVERAGE iMISS LATENCY: 0 cycles
cpu0_DTLB AVERAGE dMISS LATENCY: 20.1797 cycles
cpu0_DTLB AVERAGE itMISS LATENCY: 0 cycles
cpu0_DTLB AVERAGE dtMISS LATENCY: 0 cycles
cpu0_DTLB PAGE CROSSINGS (TLB HIT):         0 
cpu0_DTLB PAGE CROSSINGS (TLB MISS):         0 
cpu0_DTLB AVERAGE MISS LATENCY: 20.1797 cycles
cpu0_STLB TOTAL       ACCESS:    1571527  HIT:    1307314  MISS:     264213  iACCESS:     400730  iHIT:     305568  iMISS:      95162  dACCESS:    1170797  dHIT:    1001746  dMISS:     169051  itACCESS:          0  itHIT:          0  itMISS:          0  dtACCESS:          0  dtHIT:          0  dtMISS:          0
cpu0_STLB LOAD         ACCESS:    1571527  HIT:    1307314  MISS:     264213  iACCESS:     400730  iHIT:     305568  iMISS:      95162  dACCESS:    1170797  dHIT:    1001746  dMISS:     169051  itACCESS:          0  itHIT:          0  itMISS:          0  dtACCESS:          0  dtHIT:          0  dtMISS:          0
cpu0_STLB RFO          ACCESS:          0  HIT:          0  MISS:          0  iACCESS:          0  iHIT:          0  iMISS:          0  dACCESS:          0  dHIT:          0  dMISS:          0  itACCESS:          0  itHIT:          0  itMISS:          0  dtACCESS:          0  dtHIT:          0  dtMISS:          0
cpu0_STLB PREFETCH     ACCESS:          0  HIT:          0  MISS:          0  iACCESS:          0  iHIT:          0  iMISS:          0  dACCESS:          0  dHIT:          0  dMISS:          0  itACCESS:          0  itHIT:          0  itMISS:          0  dtACCESS:          0  dtHIT:          0  dtMISS:          0
cpu0_STLB WRITE        ACCESS:          0  HIT:          0  MISS:          0  iACCESS:          0  iHIT:          0  iMISS:          0  dACCESS:          0  dHIT:          0  dMISS:          0  itACCESS:          0  itHIT:          0  itMISS:          0  dtACCESS:          0  dtHIT:          0  dtMISS:          0
cpu0_STLB TRANSLATION  ACCESS:          0  HIT:          0  MISS:          0  iACCESS:          0  iHIT:          0  iMISS:          0  dACCESS:          0  dHIT:          0  dMISS:          0  itACCESS:          0  itHIT:          0  itMISS:          0  dtACCESS:          0  dtHIT:          0  dtMISS:          0
cpu0_STLB PREFETCH  REQUESTED:          0  ISSUED:          0  CROSSED:          0  USEFUL:          0  USELESS:          0
cpu0_STLB AVERAGE iMISS LATENCY: 43.8337 cycles
cpu0_STLB AVERAGE dMISS LATENCY: 112.637 cycles
cpu0_STLB AVERAGE itMISS LATENCY: 0 cycles
cpu0_STLB AVERAGE dtMISS LATENCY: 0 cycles
cpu0_STLB PAGE CROSSINGS (TLB HIT):         0 
cpu0_STLB PAGE CROSSINGS (TLB MISS):         0 
cpu0_STLB AVERAGE MISS LATENCY: 156.471 cycles
cpu0_L1D TOTAL       ACCESS:   44358425  HIT:   39376864  MISS:    4981561  iACCESS:          0  iHIT:          0  iMISS:          0  dACCESS:   44021602  dHIT:   39350146  dMISS:    4671456  itACCESS:     102164  itHIT:      13012  itMISS:      89152  dtACCESS:     234659  dtHIT:      13706  dtMISS:     220953
cpu0_L1D LOAD         ACCESS:   20372537  HIT:   18186646  MISS:    2185891  iACCESS:          0  iHIT:          0  iMISS:          0  dACCESS:   20372537  dHIT:   18186646  dMISS:    2185891  itACCESS:          0  itHIT:          0  itMISS:          0  dtACCESS:          0  dtHIT:          0  dtMISS:          0
cpu0_L1D RFO          ACCESS:          0  HIT:          0  MISS:          0  iACCESS:          0  iHIT:          0  iMISS:          0  dACCESS:          0  dHIT:          0  dMISS:          0  itACCESS:          0  itHIT:          0  itMISS:          0  dtACCESS:          0  dtHIT:          0  dtMISS:          0
cpu0_L1D PREFETCH     ACCESS:   13564139  HIT:   11555141  MISS:    2008998  iACCESS:          0  iHIT:          0  iMISS:          0  dACCESS:   13564139  dHIT:   11555141  dMISS:    2008998  itACCESS:          0  itHIT:          0  itMISS:          0  dtACCESS:          0  dtHIT:          0  dtMISS:          0
cpu0_L1D WRITE        ACCESS:   10084926  HIT:    9608359  MISS:     476567  iACCESS:          0  iHIT:          0  iMISS:          0  dACCESS:   10084926  dHIT:    9608359  dMISS:     476567  itACCESS:          0  itHIT:          0  itMISS:          0  dtACCESS:          0  dtHIT:          0  dtMISS:          0
cpu0_L1D TRANSLATION  ACCESS:     336823  HIT:      26718  MISS:     310105  iACCESS:          0  iHIT:          0  iMISS:          0  dACCESS:          0  dHIT:          0  dMISS:          0  itACCESS:     102164  itHIT:      13012  itMISS:      89152  dtACCESS:     234659  dtHIT:      13706  dtMISS:     220953
cpu0_L1D PREFETCH  REQUESTED:   20372537  ISSUED:   18100941  CROSSED:          0  USEFUL:     343831  USELESS:     774025
cpu0_L1D AVERAGE iMISS LATENCY: 0 cycles
cpu0_L1D AVERAGE dMISS LATENCY: 40.8931 cycles
cpu0_L1D AVERAGE itMISS LATENCY: 2.15789 cycles
cpu0_L1D AVERAGE dtMISS LATENCY: 5.52759 cycles
cpu0_L1D PAGE CROSSINGS (TLB HIT):         0 
cpu0_L1D PAGE CROSSINGS (TLB MISS):         0 
cpu0_L1D AVERAGE MISS LATENCY: 48.5786 cycles
cpu0_L2C TOTAL       ACCESS:    7530929  HIT:    2988024  MISS:    4542905  iACCESS:    3388480  iHIT:    1622418  iMISS:    1766062  dACCESS:    3844899  dHIT:    1277844  dMISS:    2567055  itACCESS:      89152  itHIT:      26649  itMISS:      62503  dtACCESS:     208398  dtHIT:      61113  dtMISS:     147285
cpu0_L2C LOAD         ACCESS:    1851161  HIT:     702360  MISS:    1148801  iACCESS:     777231  iHIT:     376397  iMISS:     400834  dACCESS:    1073930  dHIT:     325963  dMISS:     747967  itACCESS:          0  itHIT:          0  itMISS:          0  dtACCESS:          0  dtHIT:          0  dtMISS:          0
cpu0_L2C RFO          ACCESS:     171672  HIT:      51287  MISS:     120385  iACCESS:          0  iHIT:          0  iMISS:          0  dACCESS:     171672  dHIT:      51287  dMISS:     120385  itACCESS:          0  itHIT:          0  itMISS:          0  dtACCESS:          0  dtHIT:          0  dtMISS:          0
cpu0_L2C PREFETCH     ACCESS:    4920334  HIT:    1931273  MISS:    2989061  iACCESS:    2611249  iHIT:    1246021  iMISS:    1365228  dACCESS:    2309085  dHIT:     685252  dMISS:    1623833  itACCESS:          0  itHIT:          0  itMISS:          0  dtACCESS:          0  dtHIT:          0  dtMISS:          0
cpu0_L2C WRITE        ACCESS:     290212  HIT:     215342  MISS:      74870  iACCESS:          0  iHIT:          0  iMISS:          0  dACCESS:     290212  dHIT:     215342  dMISS:      74870  itACCESS:          0  itHIT:          0  itMISS:          0  dtACCESS:          0  dtHIT:          0  dtMISS:          0
cpu0_L2C TRANSLATION  ACCESS:     297550  HIT:      87762  MISS:     209788  iACCESS:          0  iHIT:          0  iMISS:          0  dACCESS:          0  dHIT:          0  dMISS:          0  itACCESS:      89152  itHIT:      26649  itMISS:      62503  dtACCESS:     208398  dtHIT:      61113  dtMISS:     147285
cpu0_L2C PREFETCH  REQUESTED:    1437555  ISSUED:    1437529  CROSSED:          0  USEFUL:     346688  USELESS:     352528
cpu0_L2C AVERAGE iMISS LATENCY: 30.8624 cycles
cpu0_L2C AVERAGE dMISS LATENCY: 55.8777 cycles
cpu0_L2C AVERAGE itMISS LATENCY: 2.17537 cycles
cpu0_L2C AVERAGE dtMISS LATENCY: 5.61388 cycles
cpu0_L2C PAGE CROSSINGS (TLB HIT):         0 
cpu0_L2C PAGE CROSSINGS (TLB MISS):         0 
cpu0_L2C AVERAGE MISS LATENCY: 94.5293 cycles
LLC TOTAL       ACCESS:    4468986  HIT:    2342484  MISS:    2126502  iACCESS:    1689178  iHIT:     971764  iMISS:     717414  dACCESS:    2570020  dHIT:    1330601  dMISS:    1239419  itACCESS:      62503  itHIT:      13096  itMISS:      49407  dtACCESS:     147285  dtHIT:      27023  dtMISS:     120262
LLC LOAD         ACCESS:    1141220  HIT:     644186  MISS:     497034  iACCESS:     399571  iHIT:     249153  iMISS:     150418  dACCESS:     741649  dHIT:     395033  dMISS:     346616  itACCESS:          0  itHIT:          0  itMISS:          0  dtACCESS:          0  dtHIT:          0  dtMISS:          0
LLC RFO          ACCESS:     120384  HIT:      54284  MISS:      66100  iACCESS:          0  iHIT:          0  iMISS:          0  dACCESS:     120384  dHIT:      54284  dMISS:      66100  itACCESS:          0  itHIT:          0  itMISS:          0  dtACCESS:          0  dtHIT:          0  dtMISS:          0
LLC PREFETCH     ACCESS:    2808960  HIT:    1420764  MISS:    1388196  iACCESS:    1289607  iHIT:     722611  iMISS:     566996  dACCESS:    1519353  dHIT:     698153  dMISS:     821200  itACCESS:          0  itHIT:          0  itMISS:          0  dtACCESS:          0  dtHIT:          0  dtMISS:          0
LLC WRITE        ACCESS:     188634  HIT:     183131  MISS:       5503  iACCESS:          0  iHIT:          0  iMISS:          0  dACCESS:     188634  dHIT:     183131  dMISS:       5503  itACCESS:          0  itHIT:          0  itMISS:          0  dtACCESS:          0  dtHIT:          0  dtMISS:          0
LLC TRANSLATION  ACCESS:     209788  HIT:      40119  MISS:     169669  iACCESS:          0  iHIT:          0  iMISS:          0  dACCESS:          0  dHIT:          0  dMISS:          0  itACCESS:      62503  itHIT:      13096  itMISS:      49407  dtACCESS:     147285  dtHIT:      27023  dtMISS:     120262
LLC PREFETCH  REQUESTED:          0  ISSUED:          0  CROSSED:          0  USEFUL:          0  USELESS:          0
LLC AVERAGE iMISS LATENCY: 50.4433 cycles
LLC AVERAGE dMISS LATENCY: 98.6093 cycles
LLC AVERAGE itMISS LATENCY: 4.06751 cycles
LLC AVERAGE dtMISS LATENCY: 10.628 cycles
LLC PAGE CROSSINGS (TLB HIT):         0 
LLC PAGE CROSSINGS (TLB MISS):         0 
LLC AVERAGE MISS LATENCY: 163.748 cycles

PageTableWalker TOTAL       ACCESS:     132911  
PageTableWalker AVERAGE LATENCY: 4.38141 cycles
PageTableWalker TOTAL LATENCY: 582337 cycles

DRAM Statistics
Channel 0
 RQ ROW_BUFFER_HIT:     572398
  ROW_BUFFER_MISS:    1531113
 AVG DBUS CONGESTED CYCLE:    3.64408
 WQ ROW_BUFFER_HIT:      45904
  ROW_BUFFER_MISS:      32017  FULL:          0

