last_page:0x200000000000000
VMEM_RES_CAP:0x100000
PAGE_SIZE:4096
LOG2_PAGE_SIZE:12
LOG2_PAGE_TABLE_SIZE:9
page_table_levels:5
WARNING: physical memory size is smaller than virtual memory size
FDiP enabled with aggresivity 16

*** ChampSim Multicore Out-of-Order Simulator ***

Warmup Instructions: 50000000
Simulation Instructions: 100000000
Number of CPUs: 1
Small page size: 4096
Large page size: 2097152

CPU 0 Bimodal branch predictor
Basic BTB sets: 1024 ways: 8 indirect buffer size: 4096 RAS size: 64
Instruction page size distrubution: 0
Loading instruction page size distribution from /home/bsc/bsc018186/scratch/itp_asplos25_AE/dump/srv298_ap.pdst
Data page size distrubution: 0
Loading data page size distribution from /home/bsc/bsc018186/scratch/itp_asplos25_AE/dump/srv298_ap.pdst
cpu0_L2C IP-based stride prefetcher
cpu0_L1D next line prefetcher
cpu0_L1I next line prefetcher
Off-chip DRAM Size: 4 GiB Channels: 1 Width: 64-bit Data Rate: 3200 MT/s
Heartbeat CPU 0 instructions: 10000003 cycles: 2500224 heartbeat IPC: 3.99965 cumulative IPC: 3.99965 (Simulation time: 0 hr 0 min 34 sec) 
Heartbeat CPU 0 instructions: 20000002 cycles: 5000231 heartbeat IPC: 3.99999 cumulative IPC: 3.99982 (Simulation time: 0 hr 1 min 10 sec) 
Heartbeat CPU 0 instructions: 30000001 cycles: 7500308 heartbeat IPC: 3.99988 cumulative IPC: 3.99984 (Simulation time: 0 hr 1 min 47 sec) 
Heartbeat CPU 0 instructions: 40000003 cycles: 10000376 heartbeat IPC: 3.9999 cumulative IPC: 3.99985 (Simulation time: 0 hr 2 min 24 sec) 
Heartbeat CPU 0 instructions: 50000001 cycles: 12500463 heartbeat IPC: 3.99987 cumulative IPC: 3.99986 (Simulation time: 0 hr 3 min 1 sec) 
Warmup finished CPU 0 instructions: 50000001 cycles: 12500464 cumulative IPC: 3.99986 (Simulation time: 0 hr 3 min 1 sec) 

Warmup complete CPU 0 instructions: 50000001 cycles: 12500464 (Simulation time: 0 hr 3 min 1 sec) 

Heartbeat CPU 0 instructions: 60000001 cycles: 27667885 heartbeat IPC: 0.659308 cumulative IPC: 0.659308 (Simulation time: 0 hr 4 min 0 sec) 
Heartbeat CPU 0 instructions: 70000000 cycles: 43555939 heartbeat IPC: 0.629404 cumulative IPC: 0.644009 (Simulation time: 0 hr 5 min 1 sec) 
Heartbeat CPU 0 instructions: 80000000 cycles: 59160824 heartbeat IPC: 0.640825 cumulative IPC: 0.642945 (Simulation time: 0 hr 6 min 2 sec) 
Heartbeat CPU 0 instructions: 90000001 cycles: 74542703 heartbeat IPC: 0.650116 cumulative IPC: 0.644723 (Simulation time: 0 hr 7 min 2 sec) 
Heartbeat CPU 0 instructions: 100000001 cycles: 90148360 heartbeat IPC: 0.640794 cumulative IPC: 0.643933 (Simulation time: 0 hr 8 min 2 sec) 
*** Reached end of trace: /gpfs/projects/bsc18/MN4/bsc18/romol/ChampSim/traces/qualcomm_srv/srv298_ap.champsimtrace.xz
Heartbeat CPU 0 instructions: 110000004 cycles: 104472056 heartbeat IPC: 0.698145 cumulative IPC: 0.652376 (Simulation time: 0 hr 9 min 1 sec) 
Heartbeat CPU 0 instructions: 120000001 cycles: 119025593 heartbeat IPC: 0.687118 cumulative IPC: 0.657122 (Simulation time: 0 hr 10 min 0 sec) 
Heartbeat CPU 0 instructions: 130000001 cycles: 133794931 heartbeat IPC: 0.677079 cumulative IPC: 0.659552 (Simulation time: 0 hr 11 min 0 sec) 
Heartbeat CPU 0 instructions: 140000002 cycles: 147538769 heartbeat IPC: 0.727599 cumulative IPC: 0.666478 (Simulation time: 0 hr 11 min 58 sec) 
Heartbeat CPU 0 instructions: 150000004 cycles: 162609117 heartbeat IPC: 0.663555 cumulative IPC: 0.666185 (Simulation time: 0 hr 12 min 58 sec) 
Simulation finished CPU 0 instructions: 100000003 cycles: 150108654 cumulative IPC: 0.666185 (Simulation time: 0 hr 12 min 58 sec) 

Simulation complete CPU 0 instructions: 100000003 cycles: 150108654 (Simulation time: 0 hr 12 min 58 sec) 


ChampSim completed all CPUs

Saving instructions large page distribution to /home/bsc/bsc018186/scratch/itp_asplos25_AE/dump/srv298_ap.pdst...
Saving data large page distribution to /home/bsc/bsc018186/scratch/itp_asplos25_AE/dump/srv298_ap.pdst...
=== Simulation ===
CPU 0 runs /gpfs/projects/bsc18/MN4/bsc18/romol/ChampSim/traces/qualcomm_srv/srv298_ap.champsimtrace.xz

Region of Interest Statistics

CPU 0 cumulative IPC: 0.666185 instructions: 100000003 cycles: 150108654
CPU 0 Branch Prediction Accuracy: 83.4862% MPKI: 29.6736 Average ROB Occupancy at Mispredict: 12.8572
Branch type MPKI
BRANCH_DIRECT_JUMP: 0.94629
BRANCH_INDIRECT: 15.4325
BRANCH_CONDITIONAL: 9.6788
BRANCH_DIRECT_CALL: 1.80803
BRANCH_INDIRECT_CALL: 0.49394
BRANCH_RETURN: 1.31405

Instructions large pages: 0
Instructions small pages: 930
Large page distribution for instructions: 0%

Data large pages: 0
Data small pages: 9137
Large page distribution for data: 0%

cpu0_L1I TOTAL       ACCESS:   34590168  HIT:   26639486  MISS:    7950682  iACCESS:   34590168  iHIT:   26639486  iMISS:    7950682  dACCESS:          0  dHIT:          0  dMISS:          0  itACCESS:          0  itHIT:          0  itMISS:          0  dtACCESS:          0  dtHIT:          0  dtMISS:          0
cpu0_L1I LOAD         ACCESS:   10092358  HIT:    7848477  MISS:    2243881  iACCESS:   10092358  iHIT:    7848477  iMISS:    2243881  dACCESS:          0  dHIT:          0  dMISS:          0  itACCESS:          0  itHIT:          0  itMISS:          0  dtACCESS:          0  dtHIT:          0  dtMISS:          0
cpu0_L1I RFO          ACCESS:          0  HIT:          0  MISS:          0  iACCESS:          0  iHIT:          0  iMISS:          0  dACCESS:          0  dHIT:          0  dMISS:          0  itACCESS:          0  itHIT:          0  itMISS:          0  dtACCESS:          0  dtHIT:          0  dtMISS:          0
cpu0_L1I PREFETCH     ACCESS:   24497810  HIT:   18791009  MISS:    5706801  iACCESS:   24497810  iHIT:   18791009  iMISS:    5706801  dACCESS:          0  dHIT:          0  dMISS:          0  itACCESS:          0  itHIT:          0  itMISS:          0  dtACCESS:          0  dtHIT:          0  dtMISS:          0
cpu0_L1I WRITE        ACCESS:          0  HIT:          0  MISS:          0  iACCESS:          0  iHIT:          0  iMISS:          0  dACCESS:          0  dHIT:          0  dMISS:          0  itACCESS:          0  itHIT:          0  itMISS:          0  dtACCESS:          0  dtHIT:          0  dtMISS:          0
cpu0_L1I TRANSLATION  ACCESS:          0  HIT:          0  MISS:          0  iACCESS:          0  iHIT:          0  iMISS:          0  dACCESS:          0  dHIT:          0  dMISS:          0  itACCESS:          0  itHIT:          0  itMISS:          0  dtACCESS:          0  dtHIT:          0  dtMISS:          0
cpu0_L1I PREFETCH  REQUESTED:   26998858  ISSUED:   26998858  CROSSED:          0  USEFUL:    1927086  USELESS:     639004
cpu0_L1I AVERAGE iMISS LATENCY: 12.5617 cycles
cpu0_L1I AVERAGE dMISS LATENCY: 0 cycles
cpu0_L1I AVERAGE itMISS LATENCY: 0 cycles
cpu0_L1I AVERAGE dtMISS LATENCY: 0 cycles
cpu0_L1I PAGE CROSSINGS (TLB HIT):         0 
cpu0_L1I PAGE CROSSINGS (TLB MISS):         0 
cpu0_L1I AVERAGE MISS LATENCY: 12.5617 cycles
cpu0_ITLB TOTAL       ACCESS:   28915751  HIT:   26892165  MISS:    2023586  iACCESS:   28915751  iHIT:   26892165  iMISS:    2023586  dACCESS:          0  dHIT:          0  dMISS:          0  itACCESS:          0  itHIT:          0  itMISS:          0  dtACCESS:          0  dtHIT:          0  dtMISS:          0
cpu0_ITLB LOAD         ACCESS:   28915751  HIT:   26892165  MISS:    2023586  iACCESS:   28915751  iHIT:   26892165  iMISS:    2023586  dACCESS:          0  dHIT:          0  dMISS:          0  itACCESS:          0  itHIT:          0  itMISS:          0  dtACCESS:          0  dtHIT:          0  dtMISS:          0
cpu0_ITLB RFO          ACCESS:          0  HIT:          0  MISS:          0  iACCESS:          0  iHIT:          0  iMISS:          0  dACCESS:          0  dHIT:          0  dMISS:          0  itACCESS:          0  itHIT:          0  itMISS:          0  dtACCESS:          0  dtHIT:          0  dtMISS:          0
cpu0_ITLB PREFETCH     ACCESS:          0  HIT:          0  MISS:          0  iACCESS:          0  iHIT:          0  iMISS:          0  dACCESS:          0  dHIT:          0  dMISS:          0  itACCESS:          0  itHIT:          0  itMISS:          0  dtACCESS:          0  dtHIT:          0  dtMISS:          0
cpu0_ITLB WRITE        ACCESS:          0  HIT:          0  MISS:          0  iACCESS:          0  iHIT:          0  iMISS:          0  dACCESS:          0  dHIT:          0  dMISS:          0  itACCESS:          0  itHIT:          0  itMISS:          0  dtACCESS:          0  dtHIT:          0  dtMISS:          0
cpu0_ITLB TRANSLATION  ACCESS:          0  HIT:          0  MISS:          0  iACCESS:          0  iHIT:          0  iMISS:          0  dACCESS:          0  dHIT:          0  dMISS:          0  itACCESS:          0  itHIT:          0  itMISS:          0  dtACCESS:          0  dtHIT:          0  dtMISS:          0
cpu0_ITLB PREFETCH  REQUESTED:          0  ISSUED:          0  CROSSED:          0  USEFUL:     325741  USELESS:      63395
cpu0_ITLB AVERAGE iMISS LATENCY: 4.68859 cycles
cpu0_ITLB AVERAGE dMISS LATENCY: 0 cycles
cpu0_ITLB AVERAGE itMISS LATENCY: 0 cycles
cpu0_ITLB AVERAGE dtMISS LATENCY: 0 cycles
cpu0_ITLB PAGE CROSSINGS (TLB HIT):         0 
cpu0_ITLB PAGE CROSSINGS (TLB MISS):         0 
cpu0_ITLB AVERAGE MISS LATENCY: 4.68859 cycles
cpu0_DTLB TOTAL       ACCESS:   27729043  HIT:   25602843  MISS:    2126200  iACCESS:          0  iHIT:          0  iMISS:          0  dACCESS:   27729043  dHIT:   25602843  dMISS:    2126200  itACCESS:          0  itHIT:          0  itMISS:          0  dtACCESS:          0  dtHIT:          0  dtMISS:          0
cpu0_DTLB LOAD         ACCESS:   27729043  HIT:   25602843  MISS:    2126200  iACCESS:          0  iHIT:          0  iMISS:          0  dACCESS:   27729043  dHIT:   25602843  dMISS:    2126200  itACCESS:          0  itHIT:          0  itMISS:          0  dtACCESS:          0  dtHIT:          0  dtMISS:          0
cpu0_DTLB RFO          ACCESS:          0  HIT:          0  MISS:          0  iACCESS:          0  iHIT:          0  iMISS:          0  dACCESS:          0  dHIT:          0  dMISS:          0  itACCESS:          0  itHIT:          0  itMISS:          0  dtACCESS:          0  dtHIT:          0  dtMISS:          0
cpu0_DTLB PREFETCH     ACCESS:          0  HIT:          0  MISS:          0  iACCESS:          0  iHIT:          0  iMISS:          0  dACCESS:          0  dHIT:          0  dMISS:          0  itACCESS:          0  itHIT:          0  itMISS:          0  dtACCESS:          0  dtHIT:          0  dtMISS:          0
cpu0_DTLB WRITE        ACCESS:          0  HIT:          0  MISS:          0  iACCESS:          0  iHIT:          0  iMISS:          0  dACCESS:          0  dHIT:          0  dMISS:          0  itACCESS:          0  itHIT:          0  itMISS:          0  dtACCESS:          0  dtHIT:          0  dtMISS:          0
cpu0_DTLB TRANSLATION  ACCESS:          0  HIT:          0  MISS:          0  iACCESS:          0  iHIT:          0  iMISS:          0  dACCESS:          0  dHIT:          0  dMISS:          0  itACCESS:          0  itHIT:          0  itMISS:          0  dtACCESS:          0  dtHIT:          0  dtMISS:          0
cpu0_DTLB PREFETCH  REQUESTED:          0  ISSUED:          0  CROSSED:          0  USEFUL:          0  USELESS:          0
cpu0_DTLB AVERAGE iMISS LATENCY: 0 cycles
cpu0_DTLB AVERAGE dMISS LATENCY: 13.5881 cycles
cpu0_DTLB AVERAGE itMISS LATENCY: 0 cycles
cpu0_DTLB AVERAGE dtMISS LATENCY: 0 cycles
cpu0_DTLB PAGE CROSSINGS (TLB HIT):         0 
cpu0_DTLB PAGE CROSSINGS (TLB MISS):         0 
cpu0_DTLB AVERAGE MISS LATENCY: 13.5881 cycles
cpu0_STLB TOTAL       ACCESS:    1632612  HIT:    1472132  MISS:     160480  iACCESS:     389130  iHIT:     333194  iMISS:      55936  dACCESS:    1243482  dHIT:    1138938  dMISS:     104544  itACCESS:          0  itHIT:          0  itMISS:          0  dtACCESS:          0  dtHIT:          0  dtMISS:          0
cpu0_STLB LOAD         ACCESS:    1632612  HIT:    1472132  MISS:     160480  iACCESS:     389130  iHIT:     333194  iMISS:      55936  dACCESS:    1243482  dHIT:    1138938  dMISS:     104544  itACCESS:          0  itHIT:          0  itMISS:          0  dtACCESS:          0  dtHIT:          0  dtMISS:          0
cpu0_STLB RFO          ACCESS:          0  HIT:          0  MISS:          0  iACCESS:          0  iHIT:          0  iMISS:          0  dACCESS:          0  dHIT:          0  dMISS:          0  itACCESS:          0  itHIT:          0  itMISS:          0  dtACCESS:          0  dtHIT:          0  dtMISS:          0
cpu0_STLB PREFETCH     ACCESS:          0  HIT:          0  MISS:          0  iACCESS:          0  iHIT:          0  iMISS:          0  dACCESS:          0  dHIT:          0  dMISS:          0  itACCESS:          0  itHIT:          0  itMISS:          0  dtACCESS:          0  dtHIT:          0  dtMISS:          0
cpu0_STLB WRITE        ACCESS:          0  HIT:          0  MISS:          0  iACCESS:          0  iHIT:          0  iMISS:          0  dACCESS:          0  dHIT:          0  dMISS:          0  itACCESS:          0  itHIT:          0  itMISS:          0  dtACCESS:          0  dtHIT:          0  dtMISS:          0
cpu0_STLB TRANSLATION  ACCESS:          0  HIT:          0  MISS:          0  iACCESS:          0  iHIT:          0  iMISS:          0  dACCESS:          0  dHIT:          0  dMISS:          0  itACCESS:          0  itHIT:          0  itMISS:          0  dtACCESS:          0  dtHIT:          0  dtMISS:          0
cpu0_STLB PREFETCH  REQUESTED:          0  ISSUED:          0  CROSSED:          0  USEFUL:          0  USELESS:          0
cpu0_STLB AVERAGE iMISS LATENCY: 39.9743 cycles
cpu0_STLB AVERAGE dMISS LATENCY: 118.262 cycles
cpu0_STLB AVERAGE itMISS LATENCY: 0 cycles
cpu0_STLB AVERAGE dtMISS LATENCY: 0 cycles
cpu0_STLB PAGE CROSSINGS (TLB HIT):         0 
cpu0_STLB PAGE CROSSINGS (TLB MISS):         0 
cpu0_STLB AVERAGE MISS LATENCY: 158.236 cycles
cpu0_L1D TOTAL       ACCESS:   41585563  HIT:   37984565  MISS:    3600998  iACCESS:          0  iHIT:          0  iMISS:          0  dACCESS:   41359980  dHIT:   37964799  dMISS:    3395181  itACCESS:      60535  itHIT:       9101  itMISS:      51434  dtACCESS:     165048  dtHIT:      10665  dtMISS:     154383
cpu0_L1D LOAD         ACCESS:   18962167  HIT:   17406451  MISS:    1555716  iACCESS:          0  iHIT:          0  iMISS:          0  dACCESS:   18962167  dHIT:   17406451  dMISS:    1555716  itACCESS:          0  itHIT:          0  itMISS:          0  dtACCESS:          0  dtHIT:          0  dtMISS:          0
cpu0_L1D RFO          ACCESS:          0  HIT:          0  MISS:          0  iACCESS:          0  iHIT:          0  iMISS:          0  dACCESS:          0  dHIT:          0  dMISS:          0  itACCESS:          0  itHIT:          0  itMISS:          0  dtACCESS:          0  dtHIT:          0  dtMISS:          0
cpu0_L1D PREFETCH     ACCESS:   12230508  HIT:   10833027  MISS:    1397481  iACCESS:          0  iHIT:          0  iMISS:          0  dACCESS:   12230508  dHIT:   10833027  dMISS:    1397481  itACCESS:          0  itHIT:          0  itMISS:          0  dtACCESS:          0  dtHIT:          0  dtMISS:          0
cpu0_L1D WRITE        ACCESS:   10167305  HIT:    9725321  MISS:     441984  iACCESS:          0  iHIT:          0  iMISS:          0  dACCESS:   10167305  dHIT:    9725321  dMISS:     441984  itACCESS:          0  itHIT:          0  itMISS:          0  dtACCESS:          0  dtHIT:          0  dtMISS:          0
cpu0_L1D TRANSLATION  ACCESS:     225583  HIT:      19766  MISS:     205817  iACCESS:          0  iHIT:          0  iMISS:          0  dACCESS:          0  dHIT:          0  dMISS:          0  itACCESS:      60535  itHIT:       9101  itMISS:      51434  dtACCESS:     165048  dtHIT:      10665  dtMISS:     154383
cpu0_L1D PREFETCH  REQUESTED:   18962167  ISSUED:   17044853  CROSSED:          0  USEFUL:     307786  USELESS:     701880
cpu0_L1D AVERAGE iMISS LATENCY: 0 cycles
cpu0_L1D AVERAGE dMISS LATENCY: 31.9598 cycles
cpu0_L1D AVERAGE itMISS LATENCY: 1.64109 cycles
cpu0_L1D AVERAGE dtMISS LATENCY: 4.62164 cycles
cpu0_L1D PAGE CROSSINGS (TLB HIT):         0 
cpu0_L1D PAGE CROSSINGS (TLB MISS):         0 
cpu0_L1D AVERAGE MISS LATENCY: 38.2225 cycles
cpu0_L2C TOTAL       ACCESS:    7011507  HIT:    4121740  MISS:    2889767  iACCESS:    3333077  iHIT:    2248972  iMISS:    1084105  dACCESS:    3489335  dHIT:    1844748  dMISS:    1644587  itACCESS:      51434  itHIT:      10251  itMISS:      41183  dtACCESS:     137661  dtHIT:      17769  dtMISS:     119892
cpu0_L2C LOAD         ACCESS:    1745611  HIT:    1063625  MISS:     681986  iACCESS:     807478  iHIT:     573071  iMISS:     234407  dACCESS:     938133  dHIT:     490554  dMISS:     447579  itACCESS:          0  itHIT:          0  itMISS:          0  dtACCESS:          0  dtHIT:          0  dtMISS:          0
cpu0_L2C RFO          ACCESS:     156131  HIT:      72768  MISS:      83363  iACCESS:          0  iHIT:          0  iMISS:          0  dACCESS:     156131  dHIT:      72768  dMISS:      83363  itACCESS:          0  itHIT:          0  itMISS:          0  dtACCESS:          0  dtHIT:          0  dtMISS:          0
cpu0_L2C PREFETCH     ACCESS:    4632974  HIT:    2671849  MISS:    1961125  iACCESS:    2525599  iHIT:    1675901  iMISS:     849698  dACCESS:    2107375  dHIT:     995948  dMISS:    1111427  itACCESS:          0  itHIT:          0  itMISS:          0  dtACCESS:          0  dtHIT:          0  dtMISS:          0
cpu0_L2C WRITE        ACCESS:     287696  HIT:     285478  MISS:       2218  iACCESS:          0  iHIT:          0  iMISS:          0  dACCESS:     287696  dHIT:     285478  dMISS:       2218  itACCESS:          0  itHIT:          0  itMISS:          0  dtACCESS:          0  dtHIT:          0  dtMISS:          0
cpu0_L2C TRANSLATION  ACCESS:     189095  HIT:      28020  MISS:     161075  iACCESS:          0  iHIT:          0  iMISS:          0  dACCESS:          0  dHIT:          0  dMISS:          0  itACCESS:      51434  itHIT:      10251  itMISS:      41183  dtACCESS:     137661  dtHIT:      17769  dtMISS:     119892
cpu0_L2C PREFETCH  REQUESTED:    1382749  ISSUED:    1382691  CROSSED:          0  USEFUL:     311403  USELESS:     226581
cpu0_L2C AVERAGE iMISS LATENCY: 24.0579 cycles
cpu0_L2C AVERAGE dMISS LATENCY: 46.382 cycles
cpu0_L2C AVERAGE itMISS LATENCY: 1.87012 cycles
cpu0_L2C AVERAGE dtMISS LATENCY: 5.28508 cycles
cpu0_L2C PAGE CROSSINGS (TLB HIT):         0 
cpu0_L2C PAGE CROSSINGS (TLB MISS):         0 
cpu0_L2C AVERAGE MISS LATENCY: 77.595 cycles
LLC TOTAL       ACCESS:    2916940  HIT:    1855750  MISS:    1061190  iACCESS:    1029691  iHIT:     698459  iMISS:     331232  dACCESS:    1726174  dHIT:    1094441  dMISS:     631733  itACCESS:      41183  itHIT:      14676  itMISS:      26507  dtACCESS:     119892  dtHIT:      48174  dtMISS:      71718
LLC LOAD         ACCESS:     679806  HIT:     440428  MISS:     239378  iACCESS:     232915  iHIT:     157453  iMISS:      75462  dACCESS:     446891  dHIT:     282975  dMISS:     163916  itACCESS:          0  itHIT:          0  itMISS:          0  dtACCESS:          0  dtHIT:          0  dtMISS:          0
LLC RFO          ACCESS:      83358  HIT:      42436  MISS:      40922  iACCESS:          0  iHIT:          0  iMISS:          0  dACCESS:      83358  dHIT:      42436  dMISS:      40922  itACCESS:          0  itHIT:          0  itMISS:          0  dtACCESS:          0  dtHIT:          0  dtMISS:          0
LLC PREFETCH     ACCESS:    1858023  HIT:    1182219  MISS:     675804  iACCESS:     796776  iHIT:     541006  iMISS:     255770  dACCESS:    1061247  dHIT:     641213  dMISS:     420034  itACCESS:          0  itHIT:          0  itMISS:          0  dtACCESS:          0  dtHIT:          0  dtMISS:          0
LLC WRITE        ACCESS:     134678  HIT:     127817  MISS:       6861  iACCESS:          0  iHIT:          0  iMISS:          0  dACCESS:     134678  dHIT:     127817  dMISS:       6861  itACCESS:          0  itHIT:          0  itMISS:          0  dtACCESS:          0  dtHIT:          0  dtMISS:          0
LLC TRANSLATION  ACCESS:     161075  HIT:      62850  MISS:      98225  iACCESS:          0  iHIT:          0  iMISS:          0  dACCESS:          0  dHIT:          0  dMISS:          0  itACCESS:      41183  itHIT:      14676  itMISS:      26507  dtACCESS:     119892  dtHIT:      48174  dtMISS:      71718
LLC PREFETCH  REQUESTED:          0  ISSUED:          0  CROSSED:          0  USEFUL:          0  USELESS:          0
LLC AVERAGE iMISS LATENCY: 46.6495 cycles
LLC AVERAGE dMISS LATENCY: 97.4119 cycles
LLC AVERAGE itMISS LATENCY: 4.33239 cycles
LLC AVERAGE dtMISS LATENCY: 12.1841 cycles
LLC PAGE CROSSINGS (TLB HIT):         0 
LLC PAGE CROSSINGS (TLB MISS):         0 
LLC AVERAGE MISS LATENCY: 160.578 cycles

PageTableWalker TOTAL       ACCESS:      77331  
PageTableWalker AVERAGE LATENCY: 5.15261 cycles
PageTableWalker TOTAL LATENCY: 398456 cycles

DRAM Statistics
Channel 0
 RQ ROW_BUFFER_HIT:     263518
  ROW_BUFFER_MISS:     790259
 AVG DBUS CONGESTED CYCLE:    3.61799
 WQ ROW_BUFFER_HIT:      21212
  ROW_BUFFER_MISS:      22007  FULL:          0

