last_page:0x200000000000000
VMEM_RES_CAP:0x100000
PAGE_SIZE:4096
LOG2_PAGE_SIZE:12
LOG2_PAGE_TABLE_SIZE:9
page_table_levels:5
WARNING: physical memory size is smaller than virtual memory size
FDiP enabled with aggresivity 16

*** ChampSim Multicore Out-of-Order Simulator ***

Warmup Instructions: 50000000
Simulation Instructions: 100000000
Number of CPUs: 1
Small page size: 4096
Large page size: 2097152

CPU 0 Bimodal branch predictor
Basic BTB sets: 1024 ways: 8 indirect buffer size: 4096 RAS size: 64
Instruction page size distrubution: 0
Loading instruction page size distribution from /home/bsc/bsc018186/scratch/itp_asplos25_AE/dump/srv364_ap.pdst
Data page size distrubution: 0
Loading data page size distribution from /home/bsc/bsc018186/scratch/itp_asplos25_AE/dump/srv364_ap.pdst
cpu0_L2C IP-based stride prefetcher
cpu0_L2C is using PTP replacement policy:
	TLB_STRESS_THRESHOLD:0
	PTE_EVICTION_RATIO:0
cpu0_L1D next line prefetcher
CHiRPing...
cpu0_L1I next line prefetcher
Off-chip DRAM Size: 4 GiB Channels: 1 Width: 64-bit Data Rate: 3200 MT/s
Heartbeat CPU 0 instructions: 10000000 cycles: 2500130 heartbeat IPC: 3.9998 cumulative IPC: 3.9998 (Simulation time: 0 hr 0 min 39 sec) 
Heartbeat CPU 0 instructions: 20000002 cycles: 5000153 heartbeat IPC: 3.99997 cumulative IPC: 3.99988 (Simulation time: 0 hr 1 min 19 sec) 
Heartbeat CPU 0 instructions: 30000001 cycles: 7500166 heartbeat IPC: 3.99998 cumulative IPC: 3.99992 (Simulation time: 0 hr 2 min 1 sec) 
Heartbeat CPU 0 instructions: 40000000 cycles: 10000228 heartbeat IPC: 3.99991 cumulative IPC: 3.99991 (Simulation time: 0 hr 2 min 42 sec) 
Heartbeat CPU 0 instructions: 50000001 cycles: 12500244 heartbeat IPC: 3.99998 cumulative IPC: 3.99993 (Simulation time: 0 hr 3 min 24 sec) 
Warmup finished CPU 0 instructions: 50000001 cycles: 12500245 cumulative IPC: 3.99993 (Simulation time: 0 hr 3 min 24 sec) 

Warmup complete CPU 0 instructions: 50000001 cycles: 12500245 (Simulation time: 0 hr 3 min 24 sec) 

Heartbeat CPU 0 instructions: 60000003 cycles: 30082808 heartbeat IPC: 0.568746 cumulative IPC: 0.568746 (Simulation time: 0 hr 4 min 35 sec) 
Heartbeat CPU 0 instructions: 70000002 cycles: 48641141 heartbeat IPC: 0.538842 cumulative IPC: 0.55339 (Simulation time: 0 hr 5 min 44 sec) 
Heartbeat CPU 0 instructions: 80000003 cycles: 67840732 heartbeat IPC: 0.520845 cumulative IPC: 0.542099 (Simulation time: 0 hr 6 min 56 sec) 
Heartbeat CPU 0 instructions: 90000000 cycles: 87354051 heartbeat IPC: 0.512471 cumulative IPC: 0.534375 (Simulation time: 0 hr 8 min 8 sec) 
Heartbeat CPU 0 instructions: 100000004 cycles: 102732752 heartbeat IPC: 0.650251 cumulative IPC: 0.554125 (Simulation time: 0 hr 9 min 15 sec) 
*** Reached end of trace: /gpfs/projects/bsc18/MN4/bsc18/romol/ChampSim/traces/qualcomm_srv/srv364_ap.champsimtrace.xz
Heartbeat CPU 0 instructions: 110000000 cycles: 118743579 heartbeat IPC: 0.624578 cumulative IPC: 0.564742 (Simulation time: 0 hr 10 min 23 sec) 
Heartbeat CPU 0 instructions: 120000004 cycles: 138983252 heartbeat IPC: 0.49408 cumulative IPC: 0.553435 (Simulation time: 0 hr 11 min 35 sec) 
Heartbeat CPU 0 instructions: 130000001 cycles: 159682059 heartbeat IPC: 0.48312 cumulative IPC: 0.543546 (Simulation time: 0 hr 12 min 48 sec) 
Heartbeat CPU 0 instructions: 140000000 cycles: 179908545 heartbeat IPC: 0.494402 cumulative IPC: 0.537608 (Simulation time: 0 hr 14 min 0 sec) 
Heartbeat CPU 0 instructions: 150000003 cycles: 199963216 heartbeat IPC: 0.498638 cumulative IPC: 0.533439 (Simulation time: 0 hr 15 min 13 sec) 
Simulation finished CPU 0 instructions: 100000002 cycles: 187462972 cumulative IPC: 0.533439 (Simulation time: 0 hr 15 min 13 sec) 

Simulation complete CPU 0 instructions: 100000002 cycles: 187462972 (Simulation time: 0 hr 15 min 13 sec) 


ChampSim completed all CPUs

Saving instructions large page distribution to /home/bsc/bsc018186/scratch/itp_asplos25_AE/dump/srv364_ap.pdst...
Saving data large page distribution to /home/bsc/bsc018186/scratch/itp_asplos25_AE/dump/srv364_ap.pdst...
=== Simulation ===
CPU 0 runs /gpfs/projects/bsc18/MN4/bsc18/romol/ChampSim/traces/qualcomm_srv/srv364_ap.champsimtrace.xz

Region of Interest Statistics

CPU 0 cumulative IPC: 0.533439 instructions: 100000002 cycles: 187462972
CPU 0 Branch Prediction Accuracy: 81.9892% MPKI: 33.8614 Average ROB Occupancy at Mispredict: 11.452
Branch type MPKI
BRANCH_DIRECT_JUMP: 1.23984
BRANCH_INDIRECT: 17.0614
BRANCH_CONDITIONAL: 10.9182
BRANCH_DIRECT_CALL: 2.32983
BRANCH_INDIRECT_CALL: 0.68171
BRANCH_RETURN: 1.63037

Instructions large pages: 0
Instructions small pages: 1091
Large page distribution for instructions: 0%

Data large pages: 0
Data small pages: 4518
Large page distribution for data: 0%

cpu0_L1I TOTAL       ACCESS:   35113076  HIT:   27499580  MISS:    7613496  iACCESS:   35113076  iHIT:   27499580  iMISS:    7613496  dACCESS:          0  dHIT:          0  dMISS:          0  itACCESS:          0  itHIT:          0  itMISS:          0  dtACCESS:          0  dtHIT:          0  dtMISS:          0
cpu0_L1I LOAD         ACCESS:    9666734  HIT:    7580152  MISS:    2086582  iACCESS:    9666734  iHIT:    7580152  iMISS:    2086582  dACCESS:          0  dHIT:          0  dMISS:          0  itACCESS:          0  itHIT:          0  itMISS:          0  dtACCESS:          0  dtHIT:          0  dtMISS:          0
cpu0_L1I RFO          ACCESS:          0  HIT:          0  MISS:          0  iACCESS:          0  iHIT:          0  iMISS:          0  dACCESS:          0  dHIT:          0  dMISS:          0  itACCESS:          0  itHIT:          0  itMISS:          0  dtACCESS:          0  dtHIT:          0  dtMISS:          0
cpu0_L1I PREFETCH     ACCESS:   25446342  HIT:   19919428  MISS:    5526914  iACCESS:   25446342  iHIT:   19919428  iMISS:    5526914  dACCESS:          0  dHIT:          0  dMISS:          0  itACCESS:          0  itHIT:          0  itMISS:          0  dtACCESS:          0  dtHIT:          0  dtMISS:          0
cpu0_L1I WRITE        ACCESS:          0  HIT:          0  MISS:          0  iACCESS:          0  iHIT:          0  iMISS:          0  dACCESS:          0  dHIT:          0  dMISS:          0  itACCESS:          0  itHIT:          0  itMISS:          0  dtACCESS:          0  dtHIT:          0  dtMISS:          0
cpu0_L1I TRANSLATION  ACCESS:          0  HIT:          0  MISS:          0  iACCESS:          0  iHIT:          0  iMISS:          0  dACCESS:          0  dHIT:          0  dMISS:          0  itACCESS:          0  itHIT:          0  itMISS:          0  dtACCESS:          0  dtHIT:          0  dtMISS:          0
cpu0_L1I PREFETCH  REQUESTED:   27587791  ISSUED:   27587272  CROSSED:          0  USEFUL:    1846294  USELESS:     610736
cpu0_L1I AVERAGE iMISS LATENCY: 19.684 cycles
cpu0_L1I AVERAGE dMISS LATENCY: 0 cycles
cpu0_L1I AVERAGE itMISS LATENCY: 0 cycles
cpu0_L1I AVERAGE dtMISS LATENCY: 0 cycles
cpu0_L1I PAGE CROSSINGS (TLB HIT):         0 
cpu0_L1I PAGE CROSSINGS (TLB MISS):         0 
cpu0_L1I AVERAGE MISS LATENCY: 19.684 cycles
cpu0_ITLB TOTAL       ACCESS:   29516066  HIT:   27703397  MISS:    1812669  iACCESS:   29516066  iHIT:   27703397  iMISS:    1812669  dACCESS:          0  dHIT:          0  dMISS:          0  itACCESS:          0  itHIT:          0  itMISS:          0  dtACCESS:          0  dtHIT:          0  dtMISS:          0
cpu0_ITLB LOAD         ACCESS:   29516066  HIT:   27703397  MISS:    1812669  iACCESS:   29516066  iHIT:   27703397  iMISS:    1812669  dACCESS:          0  dHIT:          0  dMISS:          0  itACCESS:          0  itHIT:          0  itMISS:          0  dtACCESS:          0  dtHIT:          0  dtMISS:          0
cpu0_ITLB RFO          ACCESS:          0  HIT:          0  MISS:          0  iACCESS:          0  iHIT:          0  iMISS:          0  dACCESS:          0  dHIT:          0  dMISS:          0  itACCESS:          0  itHIT:          0  itMISS:          0  dtACCESS:          0  dtHIT:          0  dtMISS:          0
cpu0_ITLB PREFETCH     ACCESS:          0  HIT:          0  MISS:          0  iACCESS:          0  iHIT:          0  iMISS:          0  dACCESS:          0  dHIT:          0  dMISS:          0  itACCESS:          0  itHIT:          0  itMISS:          0  dtACCESS:          0  dtHIT:          0  dtMISS:          0
cpu0_ITLB WRITE        ACCESS:          0  HIT:          0  MISS:          0  iACCESS:          0  iHIT:          0  iMISS:          0  dACCESS:          0  dHIT:          0  dMISS:          0  itACCESS:          0  itHIT:          0  itMISS:          0  dtACCESS:          0  dtHIT:          0  dtMISS:          0
cpu0_ITLB TRANSLATION  ACCESS:          0  HIT:          0  MISS:          0  iACCESS:          0  iHIT:          0  iMISS:          0  dACCESS:          0  dHIT:          0  dMISS:          0  itACCESS:          0  itHIT:          0  itMISS:          0  dtACCESS:          0  dtHIT:          0  dtMISS:          0
cpu0_ITLB PREFETCH  REQUESTED:          0  ISSUED:          0  CROSSED:          0  USEFUL:     308485  USELESS:      57659
cpu0_ITLB AVERAGE iMISS LATENCY: 5.49791 cycles
cpu0_ITLB AVERAGE dMISS LATENCY: 0 cycles
cpu0_ITLB AVERAGE itMISS LATENCY: 0 cycles
cpu0_ITLB AVERAGE dtMISS LATENCY: 0 cycles
cpu0_ITLB PAGE CROSSINGS (TLB HIT):         0 
cpu0_ITLB PAGE CROSSINGS (TLB MISS):         0 
cpu0_ITLB AVERAGE MISS LATENCY: 5.49791 cycles
cpu0_DTLB TOTAL       ACCESS:   29037803  HIT:   25602820  MISS:    3434983  iACCESS:          0  iHIT:          0  iMISS:          0  dACCESS:   29037803  dHIT:   25602820  dMISS:    3434983  itACCESS:          0  itHIT:          0  itMISS:          0  dtACCESS:          0  dtHIT:          0  dtMISS:          0
cpu0_DTLB LOAD         ACCESS:   29037803  HIT:   25602820  MISS:    3434983  iACCESS:          0  iHIT:          0  iMISS:          0  dACCESS:   29037803  dHIT:   25602820  dMISS:    3434983  itACCESS:          0  itHIT:          0  itMISS:          0  dtACCESS:          0  dtHIT:          0  dtMISS:          0
cpu0_DTLB RFO          ACCESS:          0  HIT:          0  MISS:          0  iACCESS:          0  iHIT:          0  iMISS:          0  dACCESS:          0  dHIT:          0  dMISS:          0  itACCESS:          0  itHIT:          0  itMISS:          0  dtACCESS:          0  dtHIT:          0  dtMISS:          0
cpu0_DTLB PREFETCH     ACCESS:          0  HIT:          0  MISS:          0  iACCESS:          0  iHIT:          0  iMISS:          0  dACCESS:          0  dHIT:          0  dMISS:          0  itACCESS:          0  itHIT:          0  itMISS:          0  dtACCESS:          0  dtHIT:          0  dtMISS:          0
cpu0_DTLB WRITE        ACCESS:          0  HIT:          0  MISS:          0  iACCESS:          0  iHIT:          0  iMISS:          0  dACCESS:          0  dHIT:          0  dMISS:          0  itACCESS:          0  itHIT:          0  itMISS:          0  dtACCESS:          0  dtHIT:          0  dtMISS:          0
cpu0_DTLB TRANSLATION  ACCESS:          0  HIT:          0  MISS:          0  iACCESS:          0  iHIT:          0  iMISS:          0  dACCESS:          0  dHIT:          0  dMISS:          0  itACCESS:          0  itHIT:          0  itMISS:          0  dtACCESS:          0  dtHIT:          0  dtMISS:          0
cpu0_DTLB PREFETCH  REQUESTED:          0  ISSUED:          0  CROSSED:          0  USEFUL:          0  USELESS:          0
cpu0_DTLB AVERAGE iMISS LATENCY: 0 cycles
cpu0_DTLB AVERAGE dMISS LATENCY: 9.62228 cycles
cpu0_DTLB AVERAGE itMISS LATENCY: 0 cycles
cpu0_DTLB AVERAGE dtMISS LATENCY: 0 cycles
cpu0_DTLB PAGE CROSSINGS (TLB HIT):         0 
cpu0_DTLB PAGE CROSSINGS (TLB MISS):         0 
cpu0_DTLB AVERAGE MISS LATENCY: 9.62228 cycles
cpu0_STLB TOTAL       ACCESS:    2258460  HIT:    2035238  MISS:     223222  iACCESS:     366149  iHIT:     281396  iMISS:      84753  dACCESS:    1892311  dHIT:    1753842  dMISS:     138469  itACCESS:          0  itHIT:          0  itMISS:          0  dtACCESS:          0  dtHIT:          0  dtMISS:          0
cpu0_STLB LOAD         ACCESS:    2258460  HIT:    2035238  MISS:     223222  iACCESS:     366149  iHIT:     281396  iMISS:      84753  dACCESS:    1892311  dHIT:    1753842  dMISS:     138469  itACCESS:          0  itHIT:          0  itMISS:          0  dtACCESS:          0  dtHIT:          0  dtMISS:          0
cpu0_STLB RFO          ACCESS:          0  HIT:          0  MISS:          0  iACCESS:          0  iHIT:          0  iMISS:          0  dACCESS:          0  dHIT:          0  dMISS:          0  itACCESS:          0  itHIT:          0  itMISS:          0  dtACCESS:          0  dtHIT:          0  dtMISS:          0
cpu0_STLB PREFETCH     ACCESS:          0  HIT:          0  MISS:          0  iACCESS:          0  iHIT:          0  iMISS:          0  dACCESS:          0  dHIT:          0  dMISS:          0  itACCESS:          0  itHIT:          0  itMISS:          0  dtACCESS:          0  dtHIT:          0  dtMISS:          0
cpu0_STLB WRITE        ACCESS:          0  HIT:          0  MISS:          0  iACCESS:          0  iHIT:          0  iMISS:          0  dACCESS:          0  dHIT:          0  dMISS:          0  itACCESS:          0  itHIT:          0  itMISS:          0  dtACCESS:          0  dtHIT:          0  dtMISS:          0
cpu0_STLB TRANSLATION  ACCESS:          0  HIT:          0  MISS:          0  iACCESS:          0  iHIT:          0  iMISS:          0  dACCESS:          0  dHIT:          0  dMISS:          0  itACCESS:          0  itHIT:          0  itMISS:          0  dtACCESS:          0  dtHIT:          0  dtMISS:          0
cpu0_STLB PREFETCH  REQUESTED:          0  ISSUED:          0  CROSSED:          0  USEFUL:          0  USELESS:          0
cpu0_STLB AVERAGE iMISS LATENCY: 31.5367 cycles
cpu0_STLB AVERAGE dMISS LATENCY: 79.7783 cycles
cpu0_STLB AVERAGE itMISS LATENCY: 0 cycles
cpu0_STLB AVERAGE dtMISS LATENCY: 0 cycles
cpu0_STLB PAGE CROSSINGS (TLB HIT):         0 
cpu0_STLB PAGE CROSSINGS (TLB MISS):         0 
cpu0_STLB AVERAGE MISS LATENCY: 111.315 cycles
cpu0_L1D TOTAL       ACCESS:   44453479  HIT:   38575355  MISS:    5878124  iACCESS:          0  iHIT:          0  iMISS:          0  dACCESS:   44169987  dHIT:   38548943  dMISS:    5621044  itACCESS:      90881  itHIT:      14791  itMISS:      76090  dtACCESS:     192611  dtHIT:      11621  dtMISS:     180990
cpu0_L1D LOAD         ACCESS:   20964294  HIT:   17873946  MISS:    3090348  iACCESS:          0  iHIT:          0  iMISS:          0  dACCESS:   20964294  dHIT:   17873946  dMISS:    3090348  itACCESS:          0  itHIT:          0  itMISS:          0  dtACCESS:          0  dtHIT:          0  dtMISS:          0
cpu0_L1D RFO          ACCESS:          0  HIT:          0  MISS:          0  iACCESS:          0  iHIT:          0  iMISS:          0  dACCESS:          0  dHIT:          0  dMISS:          0  itACCESS:          0  itHIT:          0  itMISS:          0  dtACCESS:          0  dtHIT:          0  dtMISS:          0
cpu0_L1D PREFETCH     ACCESS:   13275266  HIT:   11234467  MISS:    2040799  iACCESS:          0  iHIT:          0  iMISS:          0  dACCESS:   13275266  dHIT:   11234467  dMISS:    2040799  itACCESS:          0  itHIT:          0  itMISS:          0  dtACCESS:          0  dtHIT:          0  dtMISS:          0
cpu0_L1D WRITE        ACCESS:    9930427  HIT:    9440530  MISS:     489897  iACCESS:          0  iHIT:          0  iMISS:          0  dACCESS:    9930427  dHIT:    9440530  dMISS:     489897  itACCESS:          0  itHIT:          0  itMISS:          0  dtACCESS:          0  dtHIT:          0  dtMISS:          0
cpu0_L1D TRANSLATION  ACCESS:     283492  HIT:      26412  MISS:     257080  iACCESS:          0  iHIT:          0  iMISS:          0  dACCESS:          0  dHIT:          0  dMISS:          0  itACCESS:      90881  itHIT:      14791  itMISS:      76090  dtACCESS:     192611  dtHIT:      11621  dtMISS:     180990
cpu0_L1D PREFETCH  REQUESTED:   20964294  ISSUED:   17428918  CROSSED:          0  USEFUL:     290735  USELESS:     757177
cpu0_L1D AVERAGE iMISS LATENCY: 0 cycles
cpu0_L1D AVERAGE dMISS LATENCY: 31.3337 cycles
cpu0_L1D AVERAGE itMISS LATENCY: 1.07179 cycles
cpu0_L1D AVERAGE dtMISS LATENCY: 2.71002 cycles
cpu0_L1D PAGE CROSSINGS (TLB HIT):         0 
cpu0_L1D PAGE CROSSINGS (TLB MISS):         0 
cpu0_L1D AVERAGE MISS LATENCY: 35.1155 cycles
cpu0_L2C TOTAL       ACCESS:    7944936  HIT:    2730642  MISS:    5214294  iACCESS:    3134308  iHIT:    1149954  iMISS:    1984354  dACCESS:    4561554  dHIT:    1457648  dMISS:    3103906  itACCESS:      76090  itHIT:      38982  itMISS:      37108  dtACCESS:     172984  dtHIT:      84058  dtMISS:      88926
cpu0_L2C LOAD         ACCESS:    2628785  HIT:     975710  MISS:    1653075  iACCESS:     712038  iHIT:     236719  iMISS:     475319  dACCESS:    1916747  dHIT:     738991  dMISS:    1177756  itACCESS:          0  itHIT:          0  itMISS:          0  dtACCESS:          0  dtHIT:          0  dtMISS:          0
cpu0_L2C RFO          ACCESS:     168040  HIT:      28339  MISS:     139701  iACCESS:          0  iHIT:          0  iMISS:          0  dACCESS:     168040  dHIT:      28339  dMISS:     139701  itACCESS:          0  itHIT:          0  itMISS:          0  dtACCESS:          0  dtHIT:          0  dtMISS:          0
cpu0_L2C PREFETCH     ACCESS:    4640478  HIT:    1472508  MISS:    3167970  iACCESS:    2422270  iHIT:     913235  iMISS:    1509035  dACCESS:    2218208  dHIT:     559273  dMISS:    1658935  itACCESS:          0  itHIT:          0  itMISS:          0  dtACCESS:          0  dtHIT:          0  dtMISS:          0
cpu0_L2C WRITE        ACCESS:     258559  HIT:     131045  MISS:     127514  iACCESS:          0  iHIT:          0  iMISS:          0  dACCESS:     258559  dHIT:     131045  dMISS:     127514  itACCESS:          0  itHIT:          0  itMISS:          0  dtACCESS:          0  dtHIT:          0  dtMISS:          0
cpu0_L2C TRANSLATION  ACCESS:     249074  HIT:     123040  MISS:     126034  iACCESS:          0  iHIT:          0  iMISS:          0  dACCESS:          0  dHIT:          0  dMISS:          0  itACCESS:      76090  itHIT:      38982  itMISS:      37108  dtACCESS:     172984  dtHIT:      84058  dtMISS:      88926
cpu0_L2C PREFETCH  REQUESTED:    1411881  ISSUED:    1411600  CROSSED:          0  USEFUL:     367915  USELESS:     364670
cpu0_L2C AVERAGE iMISS LATENCY: 23.453 cycles
cpu0_L2C AVERAGE dMISS LATENCY: 41.4583 cycles
cpu0_L2C AVERAGE itMISS LATENCY: 1.06935 cycles
cpu0_L2C AVERAGE dtMISS LATENCY: 2.738 cycles
cpu0_L2C PAGE CROSSINGS (TLB HIT):         0 
cpu0_L2C PAGE CROSSINGS (TLB MISS):         0 
cpu0_L2C AVERAGE MISS LATENCY: 68.7185 cycles
LLC TOTAL       ACCESS:    5109109  HIT:    3455029  MISS:    1654080  iACCESS:    1909009  iHIT:    1327757  iMISS:     581252  dACCESS:    3074066  dHIT:    2096735  dMISS:     977331  itACCESS:      37108  itHIT:       9428  itMISS:      27680  dtACCESS:      88926  dtHIT:      21109  dtMISS:      67817
LLC LOAD         ACCESS:    1647035  HIT:    1277991  MISS:     369044  iACCESS:     473895  iHIT:     351798  iMISS:     122097  dACCESS:    1173140  dHIT:     926193  dMISS:     246947  itACCESS:          0  itHIT:          0  itMISS:          0  dtACCESS:          0  dtHIT:          0  dtMISS:          0
LLC RFO          ACCESS:     139698  HIT:      75846  MISS:      63852  iACCESS:          0  iHIT:          0  iMISS:          0  dACCESS:     139698  dHIT:      75846  dMISS:      63852  itACCESS:          0  itHIT:          0  itMISS:          0  dtACCESS:          0  dtHIT:          0  dtMISS:          0
LLC PREFETCH     ACCESS:    2998220  HIT:    1875300  MISS:    1122920  iACCESS:    1435114  iHIT:     975959  iMISS:     459155  dACCESS:    1563106  dHIT:     899341  dMISS:     663765  itACCESS:          0  itHIT:          0  itMISS:          0  dtACCESS:          0  dtHIT:          0  dtMISS:          0
LLC WRITE        ACCESS:     198122  HIT:     195355  MISS:       2767  iACCESS:          0  iHIT:          0  iMISS:          0  dACCESS:     198122  dHIT:     195355  dMISS:       2767  itACCESS:          0  itHIT:          0  itMISS:          0  dtACCESS:          0  dtHIT:          0  dtMISS:          0
LLC TRANSLATION  ACCESS:     126034  HIT:      30537  MISS:      95497  iACCESS:          0  iHIT:          0  iMISS:          0  dACCESS:          0  dHIT:          0  dMISS:          0  itACCESS:      37108  itHIT:       9428  itMISS:      27680  dtACCESS:      88926  dtHIT:      21109  dtMISS:      67817
LLC PREFETCH  REQUESTED:          0  ISSUED:          0  CROSSED:          0  USEFUL:          0  USELESS:          0
LLC AVERAGE iMISS LATENCY: 51.521 cycles
LLC AVERAGE dMISS LATENCY: 97.7218 cycles
LLC AVERAGE itMISS LATENCY: 2.92945 cycles
LLC AVERAGE dtMISS LATENCY: 7.57297 cycles
LLC PAGE CROSSINGS (TLB HIT):         0 
LLC PAGE CROSSINGS (TLB MISS):         0 
LLC AVERAGE MISS LATENCY: 159.746 cycles

PageTableWalker TOTAL       ACCESS:     120959  
PageTableWalker AVERAGE LATENCY: 3.79115 cycles
PageTableWalker TOTAL LATENCY: 458573 cycles

DRAM Statistics
Channel 0
 RQ ROW_BUFFER_HIT:     473976
  ROW_BUFFER_MISS:    1167552
 AVG DBUS CONGESTED CYCLE:    3.63464
 WQ ROW_BUFFER_HIT:      39035
  ROW_BUFFER_MISS:      31126  FULL:          0

