last_page:0x200000000000000
VMEM_RES_CAP:0x100000
PAGE_SIZE:4096
LOG2_PAGE_SIZE:12
LOG2_PAGE_TABLE_SIZE:9
page_table_levels:5
WARNING: physical memory size is smaller than virtual memory size
FDiP enabled with aggresivity 16

*** ChampSim Multicore Out-of-Order Simulator ***

Warmup Instructions: 50000000
Simulation Instructions: 100000000
Number of CPUs: 1
Small page size: 4096
Large page size: 2097152

CPU 0 Bimodal branch predictor
Basic BTB sets: 1024 ways: 8 indirect buffer size: 4096 RAS size: 64
Instruction page size distrubution: 0
Loading instruction page size distribution from /home/bsc/bsc018186/scratch/itp_asplos25_AE/dump/srv326_ap.pdst
Data page size distrubution: 0
Loading data page size distribution from /home/bsc/bsc018186/scratch/itp_asplos25_AE/dump/srv326_ap.pdst
cpu0_L2C IP-based stride prefetcher
cpu0_L1D next line prefetcher
cpu0_L1I next line prefetcher
Off-chip DRAM Size: 4 GiB Channels: 1 Width: 64-bit Data Rate: 3200 MT/s
Heartbeat CPU 0 instructions: 10000000 cycles: 2500214 heartbeat IPC: 3.99966 cumulative IPC: 3.99966 (Simulation time: 0 hr 0 min 35 sec) 
Heartbeat CPU 0 instructions: 20000002 cycles: 5000366 heartbeat IPC: 3.99976 cumulative IPC: 3.99971 (Simulation time: 0 hr 1 min 12 sec) 
Heartbeat CPU 0 instructions: 30000001 cycles: 7500418 heartbeat IPC: 3.99992 cumulative IPC: 3.99978 (Simulation time: 0 hr 1 min 49 sec) 
Heartbeat CPU 0 instructions: 40000003 cycles: 10000432 heartbeat IPC: 3.99998 cumulative IPC: 3.99983 (Simulation time: 0 hr 2 min 27 sec) 
Heartbeat CPU 0 instructions: 50000000 cycles: 12500574 heartbeat IPC: 3.99978 cumulative IPC: 3.99982 (Simulation time: 0 hr 3 min 4 sec) 
Warmup finished CPU 0 instructions: 50000000 cycles: 12500575 cumulative IPC: 3.99982 (Simulation time: 0 hr 3 min 4 sec) 

Warmup complete CPU 0 instructions: 50000000 cycles: 12500575 (Simulation time: 0 hr 3 min 4 sec) 

Heartbeat CPU 0 instructions: 60000000 cycles: 26932587 heartbeat IPC: 0.692905 cumulative IPC: 0.692905 (Simulation time: 0 hr 4 min 4 sec) 
Heartbeat CPU 0 instructions: 70000003 cycles: 41572947 heartbeat IPC: 0.683044 cumulative IPC: 0.687939 (Simulation time: 0 hr 5 min 5 sec) 
Heartbeat CPU 0 instructions: 80000001 cycles: 56293816 heartbeat IPC: 0.679308 cumulative IPC: 0.685038 (Simulation time: 0 hr 6 min 5 sec) 
Heartbeat CPU 0 instructions: 90000003 cycles: 71675355 heartbeat IPC: 0.650131 cumulative IPC: 0.675964 (Simulation time: 0 hr 7 min 7 sec) 
Heartbeat CPU 0 instructions: 100000001 cycles: 86135473 heartbeat IPC: 0.691558 cumulative IPC: 0.679026 (Simulation time: 0 hr 8 min 7 sec) 
*** Reached end of trace: /gpfs/projects/bsc18/MN4/bsc18/romol/ChampSim/traces/qualcomm_srv/srv326_ap.champsimtrace.xz
Heartbeat CPU 0 instructions: 110000001 cycles: 100043125 heartbeat IPC: 0.719029 cumulative IPC: 0.685382 (Simulation time: 0 hr 9 min 7 sec) 
Heartbeat CPU 0 instructions: 120000000 cycles: 113815871 heartbeat IPC: 0.726072 cumulative IPC: 0.690913 (Simulation time: 0 hr 10 min 7 sec) 
Heartbeat CPU 0 instructions: 130000004 cycles: 127475388 heartbeat IPC: 0.732091 cumulative IPC: 0.695805 (Simulation time: 0 hr 11 min 6 sec) 
Heartbeat CPU 0 instructions: 140000004 cycles: 141548799 heartbeat IPC: 0.71056 cumulative IPC: 0.697414 (Simulation time: 0 hr 12 min 6 sec) 
Heartbeat CPU 0 instructions: 150000000 cycles: 155579641 heartbeat IPC: 0.712716 cumulative IPC: 0.698915 (Simulation time: 0 hr 13 min 6 sec) 
Simulation finished CPU 0 instructions: 100000000 cycles: 143079067 cumulative IPC: 0.698915 (Simulation time: 0 hr 13 min 6 sec) 

Simulation complete CPU 0 instructions: 100000000 cycles: 143079067 (Simulation time: 0 hr 13 min 6 sec) 


ChampSim completed all CPUs

Saving instructions large page distribution to /home/bsc/bsc018186/scratch/itp_asplos25_AE/dump/srv326_ap.pdst...
Saving data large page distribution to /home/bsc/bsc018186/scratch/itp_asplos25_AE/dump/srv326_ap.pdst...
=== Simulation ===
CPU 0 runs /gpfs/projects/bsc18/MN4/bsc18/romol/ChampSim/traces/qualcomm_srv/srv326_ap.champsimtrace.xz

Region of Interest Statistics

CPU 0 cumulative IPC: 0.698915 instructions: 100000000 cycles: 143079067
CPU 0 Branch Prediction Accuracy: 83.4045% MPKI: 29.702 Average ROB Occupancy at Mispredict: 12.3691
Branch type MPKI
BRANCH_DIRECT_JUMP: 1.01952
BRANCH_INDIRECT: 15.3612
BRANCH_CONDITIONAL: 9.64146
BRANCH_DIRECT_CALL: 1.83113
BRANCH_INDIRECT_CALL: 0.515361
BRANCH_RETURN: 1.33339

Instructions large pages: 0
Instructions small pages: 1123
Large page distribution for instructions: 0%

Data large pages: 0
Data small pages: 10359
Large page distribution for data: 0%

cpu0_L1I TOTAL       ACCESS:   35142037  HIT:   26824073  MISS:    8317964  iACCESS:   35142037  iHIT:   26824073  iMISS:    8317964  dACCESS:          0  dHIT:          0  dMISS:          0  itACCESS:          0  itHIT:          0  itMISS:          0  dtACCESS:          0  dtHIT:          0  dtMISS:          0
cpu0_L1I LOAD         ACCESS:   10297354  HIT:    7960566  MISS:    2336788  iACCESS:   10297354  iHIT:    7960566  iMISS:    2336788  dACCESS:          0  dHIT:          0  dMISS:          0  itACCESS:          0  itHIT:          0  itMISS:          0  dtACCESS:          0  dtHIT:          0  dtMISS:          0
cpu0_L1I RFO          ACCESS:          0  HIT:          0  MISS:          0  iACCESS:          0  iHIT:          0  iMISS:          0  dACCESS:          0  dHIT:          0  dMISS:          0  itACCESS:          0  itHIT:          0  itMISS:          0  dtACCESS:          0  dtHIT:          0  dtMISS:          0
cpu0_L1I PREFETCH     ACCESS:   24844683  HIT:   18863507  MISS:    5981176  iACCESS:   24844683  iHIT:   18863507  iMISS:    5981176  dACCESS:          0  dHIT:          0  dMISS:          0  itACCESS:          0  itHIT:          0  itMISS:          0  dtACCESS:          0  dtHIT:          0  dtMISS:          0
cpu0_L1I WRITE        ACCESS:          0  HIT:          0  MISS:          0  iACCESS:          0  iHIT:          0  iMISS:          0  dACCESS:          0  dHIT:          0  dMISS:          0  itACCESS:          0  itHIT:          0  itMISS:          0  dtACCESS:          0  dtHIT:          0  dtMISS:          0
cpu0_L1I TRANSLATION  ACCESS:          0  HIT:          0  MISS:          0  iACCESS:          0  iHIT:          0  iMISS:          0  dACCESS:          0  dHIT:          0  dMISS:          0  itACCESS:          0  itHIT:          0  itMISS:          0  dtACCESS:          0  dtHIT:          0  dtMISS:          0
cpu0_L1I PREFETCH  REQUESTED:   27207099  ISSUED:   27205519  CROSSED:          0  USEFUL:    1898423  USELESS:     630159
cpu0_L1I AVERAGE iMISS LATENCY: 13.6459 cycles
cpu0_L1I AVERAGE dMISS LATENCY: 0 cycles
cpu0_L1I AVERAGE itMISS LATENCY: 0 cycles
cpu0_L1I AVERAGE dtMISS LATENCY: 0 cycles
cpu0_L1I PAGE CROSSINGS (TLB HIT):         0 
cpu0_L1I PAGE CROSSINGS (TLB MISS):         0 
cpu0_L1I AVERAGE MISS LATENCY: 13.6459 cycles
cpu0_ITLB TOTAL       ACCESS:   29120424  HIT:   27144764  MISS:    1975660  iACCESS:   29120424  iHIT:   27144764  iMISS:    1975660  dACCESS:          0  dHIT:          0  dMISS:          0  itACCESS:          0  itHIT:          0  itMISS:          0  dtACCESS:          0  dtHIT:          0  dtMISS:          0
cpu0_ITLB LOAD         ACCESS:   29120424  HIT:   27144764  MISS:    1975660  iACCESS:   29120424  iHIT:   27144764  iMISS:    1975660  dACCESS:          0  dHIT:          0  dMISS:          0  itACCESS:          0  itHIT:          0  itMISS:          0  dtACCESS:          0  dtHIT:          0  dtMISS:          0
cpu0_ITLB RFO          ACCESS:          0  HIT:          0  MISS:          0  iACCESS:          0  iHIT:          0  iMISS:          0  dACCESS:          0  dHIT:          0  dMISS:          0  itACCESS:          0  itHIT:          0  itMISS:          0  dtACCESS:          0  dtHIT:          0  dtMISS:          0
cpu0_ITLB PREFETCH     ACCESS:          0  HIT:          0  MISS:          0  iACCESS:          0  iHIT:          0  iMISS:          0  dACCESS:          0  dHIT:          0  dMISS:          0  itACCESS:          0  itHIT:          0  itMISS:          0  dtACCESS:          0  dtHIT:          0  dtMISS:          0
cpu0_ITLB WRITE        ACCESS:          0  HIT:          0  MISS:          0  iACCESS:          0  iHIT:          0  iMISS:          0  dACCESS:          0  dHIT:          0  dMISS:          0  itACCESS:          0  itHIT:          0  itMISS:          0  dtACCESS:          0  dtHIT:          0  dtMISS:          0
cpu0_ITLB TRANSLATION  ACCESS:          0  HIT:          0  MISS:          0  iACCESS:          0  iHIT:          0  iMISS:          0  dACCESS:          0  dHIT:          0  dMISS:          0  itACCESS:          0  itHIT:          0  itMISS:          0  dtACCESS:          0  dtHIT:          0  dtMISS:          0
cpu0_ITLB PREFETCH  REQUESTED:          0  ISSUED:          0  CROSSED:          0  USEFUL:     321656  USELESS:      67333
cpu0_ITLB AVERAGE iMISS LATENCY: 3.09715 cycles
cpu0_ITLB AVERAGE dMISS LATENCY: 0 cycles
cpu0_ITLB AVERAGE itMISS LATENCY: 0 cycles
cpu0_ITLB AVERAGE dtMISS LATENCY: 0 cycles
cpu0_ITLB PAGE CROSSINGS (TLB HIT):         0 
cpu0_ITLB PAGE CROSSINGS (TLB MISS):         0 
cpu0_ITLB AVERAGE MISS LATENCY: 3.09715 cycles
cpu0_DTLB TOTAL       ACCESS:   27719887  HIT:   25692123  MISS:    2027764  iACCESS:          0  iHIT:          0  iMISS:          0  dACCESS:   27719887  dHIT:   25692123  dMISS:    2027764  itACCESS:          0  itHIT:          0  itMISS:          0  dtACCESS:          0  dtHIT:          0  dtMISS:          0
cpu0_DTLB LOAD         ACCESS:   27719887  HIT:   25692123  MISS:    2027764  iACCESS:          0  iHIT:          0  iMISS:          0  dACCESS:   27719887  dHIT:   25692123  dMISS:    2027764  itACCESS:          0  itHIT:          0  itMISS:          0  dtACCESS:          0  dtHIT:          0  dtMISS:          0
cpu0_DTLB RFO          ACCESS:          0  HIT:          0  MISS:          0  iACCESS:          0  iHIT:          0  iMISS:          0  dACCESS:          0  dHIT:          0  dMISS:          0  itACCESS:          0  itHIT:          0  itMISS:          0  dtACCESS:          0  dtHIT:          0  dtMISS:          0
cpu0_DTLB PREFETCH     ACCESS:          0  HIT:          0  MISS:          0  iACCESS:          0  iHIT:          0  iMISS:          0  dACCESS:          0  dHIT:          0  dMISS:          0  itACCESS:          0  itHIT:          0  itMISS:          0  dtACCESS:          0  dtHIT:          0  dtMISS:          0
cpu0_DTLB WRITE        ACCESS:          0  HIT:          0  MISS:          0  iACCESS:          0  iHIT:          0  iMISS:          0  dACCESS:          0  dHIT:          0  dMISS:          0  itACCESS:          0  itHIT:          0  itMISS:          0  dtACCESS:          0  dtHIT:          0  dtMISS:          0
cpu0_DTLB TRANSLATION  ACCESS:          0  HIT:          0  MISS:          0  iACCESS:          0  iHIT:          0  iMISS:          0  dACCESS:          0  dHIT:          0  dMISS:          0  itACCESS:          0  itHIT:          0  itMISS:          0  dtACCESS:          0  dtHIT:          0  dtMISS:          0
cpu0_DTLB PREFETCH  REQUESTED:          0  ISSUED:          0  CROSSED:          0  USEFUL:          0  USELESS:          0
cpu0_DTLB AVERAGE iMISS LATENCY: 0 cycles
cpu0_DTLB AVERAGE dMISS LATENCY: 10.641 cycles
cpu0_DTLB AVERAGE itMISS LATENCY: 0 cycles
cpu0_DTLB AVERAGE dtMISS LATENCY: 0 cycles
cpu0_DTLB PAGE CROSSINGS (TLB HIT):         0 
cpu0_DTLB PAGE CROSSINGS (TLB MISS):         0 
cpu0_DTLB AVERAGE MISS LATENCY: 10.641 cycles
cpu0_STLB TOTAL       ACCESS:    1626550  HIT:    1451956  MISS:     174594  iACCESS:     389011  iHIT:     325812  iMISS:      63199  dACCESS:    1237539  dHIT:    1126144  dMISS:     111395  itACCESS:          0  itHIT:          0  itMISS:          0  dtACCESS:          0  dtHIT:          0  dtMISS:          0
cpu0_STLB LOAD         ACCESS:    1626550  HIT:    1451956  MISS:     174594  iACCESS:     389011  iHIT:     325812  iMISS:      63199  dACCESS:    1237539  dHIT:    1126144  dMISS:     111395  itACCESS:          0  itHIT:          0  itMISS:          0  dtACCESS:          0  dtHIT:          0  dtMISS:          0
cpu0_STLB RFO          ACCESS:          0  HIT:          0  MISS:          0  iACCESS:          0  iHIT:          0  iMISS:          0  dACCESS:          0  dHIT:          0  dMISS:          0  itACCESS:          0  itHIT:          0  itMISS:          0  dtACCESS:          0  dtHIT:          0  dtMISS:          0
cpu0_STLB PREFETCH     ACCESS:          0  HIT:          0  MISS:          0  iACCESS:          0  iHIT:          0  iMISS:          0  dACCESS:          0  dHIT:          0  dMISS:          0  itACCESS:          0  itHIT:          0  itMISS:          0  dtACCESS:          0  dtHIT:          0  dtMISS:          0
cpu0_STLB WRITE        ACCESS:          0  HIT:          0  MISS:          0  iACCESS:          0  iHIT:          0  iMISS:          0  dACCESS:          0  dHIT:          0  dMISS:          0  itACCESS:          0  itHIT:          0  itMISS:          0  dtACCESS:          0  dtHIT:          0  dtMISS:          0
cpu0_STLB TRANSLATION  ACCESS:          0  HIT:          0  MISS:          0  iACCESS:          0  iHIT:          0  iMISS:          0  dACCESS:          0  dHIT:          0  dMISS:          0  itACCESS:          0  itHIT:          0  itMISS:          0  dtACCESS:          0  dtHIT:          0  dtMISS:          0
cpu0_STLB PREFETCH  REQUESTED:          0  ISSUED:          0  CROSSED:          0  USEFUL:          0  USELESS:          0
cpu0_STLB AVERAGE iMISS LATENCY: 17.4209 cycles
cpu0_STLB AVERAGE dMISS LATENCY: 67.1005 cycles
cpu0_STLB AVERAGE itMISS LATENCY: 0 cycles
cpu0_STLB AVERAGE dtMISS LATENCY: 0 cycles
cpu0_STLB PAGE CROSSINGS (TLB HIT):         0 
cpu0_STLB PAGE CROSSINGS (TLB MISS):         0 
cpu0_STLB AVERAGE MISS LATENCY: 84.5214 cycles
cpu0_L1D TOTAL       ACCESS:   41535230  HIT:   37971496  MISS:    3563734  iACCESS:          0  iHIT:          0  iMISS:          0  dACCESS:   41296405  dHIT:   37950061  dMISS:    3346344  itACCESS:      68615  itHIT:       9764  itMISS:      58851  dtACCESS:     170210  dtHIT:      11671  dtMISS:     158539
cpu0_L1D LOAD         ACCESS:   18927075  HIT:   17397580  MISS:    1529495  iACCESS:          0  iHIT:          0  iMISS:          0  dACCESS:   18927075  dHIT:   17397580  dMISS:    1529495  itACCESS:          0  itHIT:          0  itMISS:          0  dtACCESS:          0  dtHIT:          0  dtMISS:          0
cpu0_L1D RFO          ACCESS:          0  HIT:          0  MISS:          0  iACCESS:          0  iHIT:          0  iMISS:          0  dACCESS:          0  dHIT:          0  dMISS:          0  itACCESS:          0  itHIT:          0  itMISS:          0  dtACCESS:          0  dtHIT:          0  dtMISS:          0
cpu0_L1D PREFETCH     ACCESS:   12167640  HIT:   10780864  MISS:    1386776  iACCESS:          0  iHIT:          0  iMISS:          0  dACCESS:   12167640  dHIT:   10780864  dMISS:    1386776  itACCESS:          0  itHIT:          0  itMISS:          0  dtACCESS:          0  dtHIT:          0  dtMISS:          0
cpu0_L1D WRITE        ACCESS:   10201690  HIT:    9771617  MISS:     430073  iACCESS:          0  iHIT:          0  iMISS:          0  dACCESS:   10201690  dHIT:    9771617  dMISS:     430073  itACCESS:          0  itHIT:          0  itMISS:          0  dtACCESS:          0  dtHIT:          0  dtMISS:          0
cpu0_L1D TRANSLATION  ACCESS:     238825  HIT:      21435  MISS:     217390  iACCESS:          0  iHIT:          0  iMISS:          0  dACCESS:          0  dHIT:          0  dMISS:          0  itACCESS:      68615  itHIT:       9764  itMISS:      58851  dtACCESS:     170210  dtHIT:      11671  dtMISS:     158539
cpu0_L1D PREFETCH  REQUESTED:   18927075  ISSUED:   16955314  CROSSED:          0  USEFUL:     306981  USELESS:     702776
cpu0_L1D AVERAGE iMISS LATENCY: 0 cycles
cpu0_L1D AVERAGE dMISS LATENCY: 33.5781 cycles
cpu0_L1D AVERAGE itMISS LATENCY: 0.692927 cycles
cpu0_L1D AVERAGE dtMISS LATENCY: 2.55424 cycles
cpu0_L1D PAGE CROSSINGS (TLB HIT):         0 
cpu0_L1D PAGE CROSSINGS (TLB MISS):         0 
cpu0_L1D AVERAGE MISS LATENCY: 36.8252 cycles
cpu0_L2C TOTAL       ACCESS:    6957050  HIT:    1699161  MISS:    5257889  iACCESS:    3286626  iHIT:     867273  iMISS:    2419353  dACCESS:    3464382  dHIT:     711941  dMISS:    2752441  itACCESS:      58851  itHIT:      42953  itMISS:      15898  dtACCESS:     147191  dtHIT:      76994  dtMISS:      70197
cpu0_L2C LOAD         ACCESS:    1726552  HIT:     315215  MISS:    1411337  iACCESS:     791434  iHIT:     160228  iMISS:     631206  dACCESS:     935118  dHIT:     154987  dMISS:     780131  itACCESS:          0  itHIT:          0  itMISS:          0  dtACCESS:          0  dtHIT:          0  dtMISS:          0
cpu0_L2C RFO          ACCESS:     158201  HIT:      52875  MISS:     105326  iACCESS:          0  iHIT:          0  iMISS:          0  dACCESS:     158201  dHIT:      52875  dMISS:     105326  itACCESS:          0  itHIT:          0  itMISS:          0  dtACCESS:          0  dtHIT:          0  dtMISS:          0
cpu0_L2C PREFETCH     ACCESS:    4580016  HIT:    1071355  MISS:    3508661  iACCESS:    2495192  iHIT:     707045  iMISS:    1788147  dACCESS:    2084824  dHIT:     364310  dMISS:    1720514  itACCESS:          0  itHIT:          0  itMISS:          0  dtACCESS:          0  dtHIT:          0  dtMISS:          0
cpu0_L2C WRITE        ACCESS:     286239  HIT:     139769  MISS:     146470  iACCESS:          0  iHIT:          0  iMISS:          0  dACCESS:     286239  dHIT:     139769  dMISS:     146470  itACCESS:          0  itHIT:          0  itMISS:          0  dtACCESS:          0  dtHIT:          0  dtMISS:          0
cpu0_L2C TRANSLATION  ACCESS:     206042  HIT:     119947  MISS:      86095  iACCESS:          0  iHIT:          0  iMISS:          0  dACCESS:          0  dHIT:          0  dMISS:          0  itACCESS:      58851  itHIT:      42953  itMISS:      15898  dtACCESS:     147191  dtHIT:      76994  dtMISS:      70197
cpu0_L2C PREFETCH  REQUESTED:    1321175  ISSUED:    1321175  CROSSED:          0  USEFUL:     385056  USELESS:     369668
cpu0_L2C AVERAGE iMISS LATENCY: 15.8214 cycles
cpu0_L2C AVERAGE dMISS LATENCY: 26.2186 cycles
cpu0_L2C AVERAGE itMISS LATENCY: 0.365643 cycles
cpu0_L2C AVERAGE dtMISS LATENCY: 1.46438 cycles
cpu0_L2C PAGE CROSSINGS (TLB HIT):         0 
cpu0_L2C PAGE CROSSINGS (TLB MISS):         0 
cpu0_L2C AVERAGE MISS LATENCY: 43.87 cycles
LLC TOTAL       ACCESS:    5138071  HIT:    4284573  MISS:     853498  iACCESS:    2366391  iHIT:    2112387  iMISS:     254004  dACCESS:    2685585  dHIT:    2130999  dMISS:     554586  itACCESS:      15898  itHIT:       6580  itMISS:       9318  dtACCESS:      70197  dtHIT:      34607  dtMISS:      35590
LLC LOAD         ACCESS:    1408994  HIT:    1214078  MISS:     194916  iACCESS:     629919  iHIT:     573941  iMISS:      55978  dACCESS:     779075  dHIT:     640137  dMISS:     138938  itACCESS:          0  itHIT:          0  itMISS:          0  dtACCESS:          0  dtHIT:          0  dtMISS:          0
LLC RFO          ACCESS:     105326  HIT:      68502  MISS:      36824  iACCESS:          0  iHIT:          0  iMISS:          0  dACCESS:     105326  dHIT:      68502  dMISS:      36824  itACCESS:          0  itHIT:          0  itMISS:          0  dtACCESS:          0  dtHIT:          0  dtMISS:          0
LLC PREFETCH     ACCESS:    3400400  HIT:    2833096  MISS:     567304  iACCESS:    1736472  iHIT:    1538446  iMISS:     198026  dACCESS:    1663928  dHIT:    1294650  dMISS:     369278  itACCESS:          0  itHIT:          0  itMISS:          0  dtACCESS:          0  dtHIT:          0  dtMISS:          0
LLC WRITE        ACCESS:     137256  HIT:     127710  MISS:       9546  iACCESS:          0  iHIT:          0  iMISS:          0  dACCESS:     137256  dHIT:     127710  dMISS:       9546  itACCESS:          0  itHIT:          0  itMISS:          0  dtACCESS:          0  dtHIT:          0  dtMISS:          0
LLC TRANSLATION  ACCESS:      86095  HIT:      41187  MISS:      44908  iACCESS:          0  iHIT:          0  iMISS:          0  dACCESS:          0  dHIT:          0  dMISS:          0  itACCESS:      15898  itHIT:       6580  itMISS:       9318  dtACCESS:      70197  dtHIT:      34607  dtMISS:      35590
LLC PREFETCH  REQUESTED:          0  ISSUED:          0  CROSSED:          0  USEFUL:          0  USELESS:          0
LLC AVERAGE iMISS LATENCY: 43.9497 cycles
LLC AVERAGE dMISS LATENCY: 104.144 cycles
LLC AVERAGE itMISS LATENCY: 1.88817 cycles
LLC AVERAGE dtMISS LATENCY: 7.4184 cycles
LLC PAGE CROSSINGS (TLB HIT):         0 
LLC PAGE CROSSINGS (TLB MISS):         0 
LLC AVERAGE MISS LATENCY: 157.4 cycles

PageTableWalker TOTAL       ACCESS:      85583  
PageTableWalker AVERAGE LATENCY: 4.5714 cycles
PageTableWalker TOTAL LATENCY: 391234 cycles

DRAM Statistics
Channel 0
 RQ ROW_BUFFER_HIT:     234907
  ROW_BUFFER_MISS:     608376
 AVG DBUS CONGESTED CYCLE:    3.62083
 WQ ROW_BUFFER_HIT:      16745
  ROW_BUFFER_MISS:      21858  FULL:          0

