last_page:0x200000000000000
VMEM_RES_CAP:0x100000
PAGE_SIZE:4096
LOG2_PAGE_SIZE:12
LOG2_PAGE_TABLE_SIZE:9
page_table_levels:5
WARNING: physical memory size is smaller than virtual memory size
FDiP enabled with aggresivity 16

*** ChampSim Multicore Out-of-Order Simulator ***

Warmup Instructions: 50000000
Simulation Instructions: 100000000
Number of CPUs: 1
Small page size: 4096
Large page size: 2097152

CPU 0 Bimodal branch predictor
Basic BTB sets: 1024 ways: 8 indirect buffer size: 4096 RAS size: 64
Instruction page size distrubution: 0
Loading instruction page size distribution from /home/bsc/bsc018186/scratch/itp_asplos25_AE/dump/srv390_ap.pdst
Data page size distrubution: 0
Loading data page size distribution from /home/bsc/bsc018186/scratch/itp_asplos25_AE/dump/srv390_ap.pdst
cpu0_L2C IP-based stride prefetcher
cpu0_L2C is using PTP replacement policy:
	TLB_STRESS_THRESHOLD:0
	PTE_EVICTION_RATIO:0
cpu0_L1D next line prefetcher
cpu0_STLB using iTP with max lru@8
cpu0_STLB using iTP with instr@0 and data@2
Init sat counter with 3 bits (max:50).
cpu0_L1I next line prefetcher
Off-chip DRAM Size: 4 GiB Channels: 1 Width: 64-bit Data Rate: 3200 MT/s
Heartbeat CPU 0 instructions: 10000001 cycles: 2500162 heartbeat IPC: 3.99975 cumulative IPC: 3.99975 (Simulation time: 0 hr 0 min 41 sec) 
Heartbeat CPU 0 instructions: 20000001 cycles: 5000207 heartbeat IPC: 3.99993 cumulative IPC: 3.99984 (Simulation time: 0 hr 1 min 24 sec) 
Heartbeat CPU 0 instructions: 30000002 cycles: 7500264 heartbeat IPC: 3.99991 cumulative IPC: 3.99986 (Simulation time: 0 hr 2 min 4 sec) 
Heartbeat CPU 0 instructions: 40000001 cycles: 10000269 heartbeat IPC: 4 cumulative IPC: 3.9999 (Simulation time: 0 hr 2 min 47 sec) 
Heartbeat CPU 0 instructions: 50000002 cycles: 12500333 heartbeat IPC: 3.9999 cumulative IPC: 3.9999 (Simulation time: 0 hr 3 min 31 sec) 
Warmup finished CPU 0 instructions: 50000002 cycles: 12500334 cumulative IPC: 3.9999 (Simulation time: 0 hr 3 min 31 sec) 

Warmup complete CPU 0 instructions: 50000002 cycles: 12500334 (Simulation time: 0 hr 3 min 31 sec) 

Heartbeat CPU 0 instructions: 60000000 cycles: 26671324 heartbeat IPC: 0.705667 cumulative IPC: 0.705667 (Simulation time: 0 hr 4 min 39 sec) 
Heartbeat CPU 0 instructions: 70000001 cycles: 40358622 heartbeat IPC: 0.730605 cumulative IPC: 0.71792 (Simulation time: 0 hr 5 min 46 sec) 
Heartbeat CPU 0 instructions: 80000000 cycles: 54449695 heartbeat IPC: 0.70967 cumulative IPC: 0.715148 (Simulation time: 0 hr 6 min 51 sec) 
Heartbeat CPU 0 instructions: 90000003 cycles: 67970817 heartbeat IPC: 0.739584 cumulative IPC: 0.721105 (Simulation time: 0 hr 7 min 58 sec) 
Heartbeat CPU 0 instructions: 100000002 cycles: 81943088 heartbeat IPC: 0.715704 cumulative IPC: 0.720018 (Simulation time: 0 hr 9 min 6 sec) 
*** Reached end of trace: /gpfs/projects/bsc18/MN4/bsc18/romol/ChampSim/traces/qualcomm_srv/srv390_ap.champsimtrace.xz
Heartbeat CPU 0 instructions: 110000004 cycles: 95723731 heartbeat IPC: 0.725656 cumulative IPC: 0.720952 (Simulation time: 0 hr 10 min 11 sec) 
Heartbeat CPU 0 instructions: 120000001 cycles: 109040614 heartbeat IPC: 0.750927 cumulative IPC: 0.725086 (Simulation time: 0 hr 11 min 17 sec) 
Heartbeat CPU 0 instructions: 130000003 cycles: 122757174 heartbeat IPC: 0.729046 cumulative IPC: 0.725579 (Simulation time: 0 hr 12 min 25 sec) 
Heartbeat CPU 0 instructions: 140000001 cycles: 136550259 heartbeat IPC: 0.725001 cumulative IPC: 0.725515 (Simulation time: 0 hr 13 min 33 sec) 
Heartbeat CPU 0 instructions: 150000000 cycles: 150385409 heartbeat IPC: 0.722797 cumulative IPC: 0.725242 (Simulation time: 0 hr 14 min 39 sec) 
Simulation finished CPU 0 instructions: 100000000 cycles: 137885086 cumulative IPC: 0.725242 (Simulation time: 0 hr 14 min 39 sec) 

Simulation complete CPU 0 instructions: 100000000 cycles: 137885086 (Simulation time: 0 hr 14 min 39 sec) 


ChampSim completed all CPUs

Saving instructions large page distribution to /home/bsc/bsc018186/scratch/itp_asplos25_AE/dump/srv390_ap.pdst...
Saving data large page distribution to /home/bsc/bsc018186/scratch/itp_asplos25_AE/dump/srv390_ap.pdst...
=== Simulation ===
CPU 0 runs /gpfs/projects/bsc18/MN4/bsc18/romol/ChampSim/traces/qualcomm_srv/srv390_ap.champsimtrace.xz

Region of Interest Statistics

CPU 0 cumulative IPC: 0.725242 instructions: 100000000 cycles: 137885086
CPU 0 Branch Prediction Accuracy: 83.5361% MPKI: 29.553 Average ROB Occupancy at Mispredict: 12.487
Branch type MPKI
BRANCH_DIRECT_JUMP: 0.938461
BRANCH_INDIRECT: 15.3301
BRANCH_CONDITIONAL: 9.68696
BRANCH_DIRECT_CALL: 1.79034
BRANCH_INDIRECT_CALL: 0.498541
BRANCH_RETURN: 1.30866

Instructions large pages: 0
Instructions small pages: 846
Large page distribution for instructions: 0%

Data large pages: 0
Data small pages: 9042
Large page distribution for data: 0%

cpu0_L1I TOTAL       ACCESS:   35105863  HIT:   26485321  MISS:    8620542  iACCESS:   35105863  iHIT:   26485321  iMISS:    8620542  dACCESS:          0  dHIT:          0  dMISS:          0  itACCESS:          0  itHIT:          0  itMISS:          0  dtACCESS:          0  dtHIT:          0  dtMISS:          0
cpu0_L1I LOAD         ACCESS:   10231712  HIT:    7817787  MISS:    2413925  iACCESS:   10231712  iHIT:    7817787  iMISS:    2413925  dACCESS:          0  dHIT:          0  dMISS:          0  itACCESS:          0  itHIT:          0  itMISS:          0  dtACCESS:          0  dtHIT:          0  dtMISS:          0
cpu0_L1I RFO          ACCESS:          0  HIT:          0  MISS:          0  iACCESS:          0  iHIT:          0  iMISS:          0  dACCESS:          0  dHIT:          0  dMISS:          0  itACCESS:          0  itHIT:          0  itMISS:          0  dtACCESS:          0  dtHIT:          0  dtMISS:          0
cpu0_L1I PREFETCH     ACCESS:   24874151  HIT:   18667534  MISS:    6206617  iACCESS:   24874151  iHIT:   18667534  iMISS:    6206617  dACCESS:          0  dHIT:          0  dMISS:          0  itACCESS:          0  itHIT:          0  itMISS:          0  dtACCESS:          0  dtHIT:          0  dtMISS:          0
cpu0_L1I WRITE        ACCESS:          0  HIT:          0  MISS:          0  iACCESS:          0  iHIT:          0  iMISS:          0  dACCESS:          0  dHIT:          0  dMISS:          0  itACCESS:          0  itHIT:          0  itMISS:          0  dtACCESS:          0  dtHIT:          0  dtMISS:          0
cpu0_L1I TRANSLATION  ACCESS:          0  HIT:          0  MISS:          0  iACCESS:          0  iHIT:          0  iMISS:          0  dACCESS:          0  dHIT:          0  dMISS:          0  itACCESS:          0  itHIT:          0  itMISS:          0  dtACCESS:          0  dtHIT:          0  dtMISS:          0
cpu0_L1I PREFETCH  REQUESTED:   27107655  ISSUED:   27104804  CROSSED:          0  USEFUL:    1936354  USELESS:     636682
cpu0_L1I AVERAGE iMISS LATENCY: 13.382 cycles
cpu0_L1I AVERAGE dMISS LATENCY: 0 cycles
cpu0_L1I AVERAGE itMISS LATENCY: 0 cycles
cpu0_L1I AVERAGE dtMISS LATENCY: 0 cycles
cpu0_L1I PAGE CROSSINGS (TLB HIT):         0 
cpu0_L1I PAGE CROSSINGS (TLB MISS):         0 
cpu0_L1I AVERAGE MISS LATENCY: 13.382 cycles
cpu0_ITLB TOTAL       ACCESS:   28997867  HIT:   27007086  MISS:    1990781  iACCESS:   28997867  iHIT:   27007086  iMISS:    1990781  dACCESS:          0  dHIT:          0  dMISS:          0  itACCESS:          0  itHIT:          0  itMISS:          0  dtACCESS:          0  dtHIT:          0  dtMISS:          0
cpu0_ITLB LOAD         ACCESS:   28997867  HIT:   27007086  MISS:    1990781  iACCESS:   28997867  iHIT:   27007086  iMISS:    1990781  dACCESS:          0  dHIT:          0  dMISS:          0  itACCESS:          0  itHIT:          0  itMISS:          0  dtACCESS:          0  dtHIT:          0  dtMISS:          0
cpu0_ITLB RFO          ACCESS:          0  HIT:          0  MISS:          0  iACCESS:          0  iHIT:          0  iMISS:          0  dACCESS:          0  dHIT:          0  dMISS:          0  itACCESS:          0  itHIT:          0  itMISS:          0  dtACCESS:          0  dtHIT:          0  dtMISS:          0
cpu0_ITLB PREFETCH     ACCESS:          0  HIT:          0  MISS:          0  iACCESS:          0  iHIT:          0  iMISS:          0  dACCESS:          0  dHIT:          0  dMISS:          0  itACCESS:          0  itHIT:          0  itMISS:          0  dtACCESS:          0  dtHIT:          0  dtMISS:          0
cpu0_ITLB WRITE        ACCESS:          0  HIT:          0  MISS:          0  iACCESS:          0  iHIT:          0  iMISS:          0  dACCESS:          0  dHIT:          0  dMISS:          0  itACCESS:          0  itHIT:          0  itMISS:          0  dtACCESS:          0  dtHIT:          0  dtMISS:          0
cpu0_ITLB TRANSLATION  ACCESS:          0  HIT:          0  MISS:          0  iACCESS:          0  iHIT:          0  iMISS:          0  dACCESS:          0  dHIT:          0  dMISS:          0  itACCESS:          0  itHIT:          0  itMISS:          0  dtACCESS:          0  dtHIT:          0  dtMISS:          0
cpu0_ITLB PREFETCH  REQUESTED:          0  ISSUED:          0  CROSSED:          0  USEFUL:     325049  USELESS:      63301
cpu0_ITLB AVERAGE iMISS LATENCY: 1.75221 cycles
cpu0_ITLB AVERAGE dMISS LATENCY: 0 cycles
cpu0_ITLB AVERAGE itMISS LATENCY: 0 cycles
cpu0_ITLB AVERAGE dtMISS LATENCY: 0 cycles
cpu0_ITLB PAGE CROSSINGS (TLB HIT):         0 
cpu0_ITLB PAGE CROSSINGS (TLB MISS):         0 
cpu0_ITLB AVERAGE MISS LATENCY: 1.75221 cycles
cpu0_DTLB TOTAL       ACCESS:   27728991  HIT:   25633177  MISS:    2095814  iACCESS:          0  iHIT:          0  iMISS:          0  dACCESS:   27728991  dHIT:   25633177  dMISS:    2095814  itACCESS:          0  itHIT:          0  itMISS:          0  dtACCESS:          0  dtHIT:          0  dtMISS:          0
cpu0_DTLB LOAD         ACCESS:   27728991  HIT:   25633177  MISS:    2095814  iACCESS:          0  iHIT:          0  iMISS:          0  dACCESS:   27728991  dHIT:   25633177  dMISS:    2095814  itACCESS:          0  itHIT:          0  itMISS:          0  dtACCESS:          0  dtHIT:          0  dtMISS:          0
cpu0_DTLB RFO          ACCESS:          0  HIT:          0  MISS:          0  iACCESS:          0  iHIT:          0  iMISS:          0  dACCESS:          0  dHIT:          0  dMISS:          0  itACCESS:          0  itHIT:          0  itMISS:          0  dtACCESS:          0  dtHIT:          0  dtMISS:          0
cpu0_DTLB PREFETCH     ACCESS:          0  HIT:          0  MISS:          0  iACCESS:          0  iHIT:          0  iMISS:          0  dACCESS:          0  dHIT:          0  dMISS:          0  itACCESS:          0  itHIT:          0  itMISS:          0  dtACCESS:          0  dtHIT:          0  dtMISS:          0
cpu0_DTLB WRITE        ACCESS:          0  HIT:          0  MISS:          0  iACCESS:          0  iHIT:          0  iMISS:          0  dACCESS:          0  dHIT:          0  dMISS:          0  itACCESS:          0  itHIT:          0  itMISS:          0  dtACCESS:          0  dtHIT:          0  dtMISS:          0
cpu0_DTLB TRANSLATION  ACCESS:          0  HIT:          0  MISS:          0  iACCESS:          0  iHIT:          0  iMISS:          0  dACCESS:          0  dHIT:          0  dMISS:          0  itACCESS:          0  itHIT:          0  itMISS:          0  dtACCESS:          0  dtHIT:          0  dtMISS:          0
cpu0_DTLB PREFETCH  REQUESTED:          0  ISSUED:          0  CROSSED:          0  USEFUL:          0  USELESS:          0
cpu0_DTLB AVERAGE iMISS LATENCY: 0 cycles
cpu0_DTLB AVERAGE dMISS LATENCY: 9.15252 cycles
cpu0_DTLB AVERAGE itMISS LATENCY: 0 cycles
cpu0_DTLB AVERAGE dtMISS LATENCY: 0 cycles
cpu0_DTLB PAGE CROSSINGS (TLB HIT):         0 
cpu0_DTLB PAGE CROSSINGS (TLB MISS):         0 
cpu0_DTLB AVERAGE MISS LATENCY: 9.15252 cycles
cpu0_STLB TOTAL       ACCESS:    1636959  HIT:    1508626  MISS:     128333  iACCESS:     388376  iHIT:     382993  iMISS:       5383  dACCESS:    1248583  dHIT:    1125633  dMISS:     122950  itACCESS:          0  itHIT:          0  itMISS:          0  dtACCESS:          0  dtHIT:          0  dtMISS:          0
cpu0_STLB LOAD         ACCESS:    1636959  HIT:    1508626  MISS:     128333  iACCESS:     388376  iHIT:     382993  iMISS:       5383  dACCESS:    1248583  dHIT:    1125633  dMISS:     122950  itACCESS:          0  itHIT:          0  itMISS:          0  dtACCESS:          0  dtHIT:          0  dtMISS:          0
cpu0_STLB RFO          ACCESS:          0  HIT:          0  MISS:          0  iACCESS:          0  iHIT:          0  iMISS:          0  dACCESS:          0  dHIT:          0  dMISS:          0  itACCESS:          0  itHIT:          0  itMISS:          0  dtACCESS:          0  dtHIT:          0  dtMISS:          0
cpu0_STLB PREFETCH     ACCESS:          0  HIT:          0  MISS:          0  iACCESS:          0  iHIT:          0  iMISS:          0  dACCESS:          0  dHIT:          0  dMISS:          0  itACCESS:          0  itHIT:          0  itMISS:          0  dtACCESS:          0  dtHIT:          0  dtMISS:          0
cpu0_STLB WRITE        ACCESS:          0  HIT:          0  MISS:          0  iACCESS:          0  iHIT:          0  iMISS:          0  dACCESS:          0  dHIT:          0  dMISS:          0  itACCESS:          0  itHIT:          0  itMISS:          0  dtACCESS:          0  dtHIT:          0  dtMISS:          0
cpu0_STLB TRANSLATION  ACCESS:          0  HIT:          0  MISS:          0  iACCESS:          0  iHIT:          0  iMISS:          0  dACCESS:          0  dHIT:          0  dMISS:          0  itACCESS:          0  itHIT:          0  itMISS:          0  dtACCESS:          0  dtHIT:          0  dtMISS:          0
cpu0_STLB PREFETCH  REQUESTED:          0  ISSUED:          0  CROSSED:          0  USEFUL:          0  USELESS:          0
cpu0_STLB AVERAGE iMISS LATENCY: 3.72746 cycles
cpu0_STLB AVERAGE dMISS LATENCY: 71.8552 cycles
cpu0_STLB AVERAGE itMISS LATENCY: 0 cycles
cpu0_STLB AVERAGE dtMISS LATENCY: 0 cycles
cpu0_STLB PAGE CROSSINGS (TLB HIT):         0 
cpu0_STLB PAGE CROSSINGS (TLB MISS):         0 
cpu0_STLB AVERAGE MISS LATENCY: 75.5826 cycles
cpu0_L1D TOTAL       ACCESS:   41500101  HIT:   37974174  MISS:    3525927  iACCESS:          0  iHIT:          0  iMISS:          0  dACCESS:   41302529  dHIT:   37962244  dMISS:    3340285  itACCESS:       6530  itHIT:        636  itMISS:       5894  dtACCESS:     191042  dtHIT:      11294  dtMISS:     179748
cpu0_L1D LOAD         ACCESS:   18944770  HIT:   17416923  MISS:    1527847  iACCESS:          0  iHIT:          0  iMISS:          0  dACCESS:   18944770  dHIT:   17416923  dMISS:    1527847  itACCESS:          0  itHIT:          0  itMISS:          0  dtACCESS:          0  dtHIT:          0  dtMISS:          0
cpu0_L1D RFO          ACCESS:          0  HIT:          0  MISS:          0  iACCESS:          0  iHIT:          0  iMISS:          0  dACCESS:          0  dHIT:          0  dMISS:          0  itACCESS:          0  itHIT:          0  itMISS:          0  dtACCESS:          0  dtHIT:          0  dtMISS:          0
cpu0_L1D PREFETCH     ACCESS:   12216137  HIT:   10840829  MISS:    1375308  iACCESS:          0  iHIT:          0  iMISS:          0  dACCESS:   12216137  dHIT:   10840829  dMISS:    1375308  itACCESS:          0  itHIT:          0  itMISS:          0  dtACCESS:          0  dtHIT:          0  dtMISS:          0
cpu0_L1D WRITE        ACCESS:   10141622  HIT:    9704492  MISS:     437130  iACCESS:          0  iHIT:          0  iMISS:          0  dACCESS:   10141622  dHIT:    9704492  dMISS:     437130  itACCESS:          0  itHIT:          0  itMISS:          0  dtACCESS:          0  dtHIT:          0  dtMISS:          0
cpu0_L1D TRANSLATION  ACCESS:     197572  HIT:      11930  MISS:     185642  iACCESS:          0  iHIT:          0  iMISS:          0  dACCESS:          0  dHIT:          0  dMISS:          0  itACCESS:       6530  itHIT:        636  itMISS:       5894  dtACCESS:     191042  dtHIT:      11294  dtMISS:     179748
cpu0_L1D PREFETCH  REQUESTED:   18944770  ISSUED:   17068397  CROSSED:          0  USEFUL:     307569  USELESS:     705050
cpu0_L1D AVERAGE iMISS LATENCY: 0 cycles
cpu0_L1D AVERAGE dMISS LATENCY: 34.3063 cycles
cpu0_L1D AVERAGE itMISS LATENCY: 0.118785 cycles
cpu0_L1D AVERAGE dtMISS LATENCY: 1.92457 cycles
cpu0_L1D PAGE CROSSINGS (TLB HIT):         0 
cpu0_L1D PAGE CROSSINGS (TLB MISS):         0 
cpu0_L1D AVERAGE MISS LATENCY: 36.3497 cycles
cpu0_L2C TOTAL       ACCESS:    6989792  HIT:    1211308  MISS:    5778484  iACCESS:    3329820  iHIT:     709543  iMISS:    2620277  dACCESS:    3490079  dHIT:     370041  dMISS:    3120038  itACCESS:       5744  itHIT:       2877  itMISS:       2867  dtACCESS:     164149  dtHIT:     128847  dtMISS:      35302
cpu0_L2C LOAD         ACCESS:    1732912  HIT:     140588  MISS:    1592324  iACCESS:     795754  iHIT:     101395  iMISS:     694359  dACCESS:     937158  dHIT:      39193  dMISS:     897965  itACCESS:          0  itHIT:          0  itMISS:          0  dtACCESS:          0  dtHIT:          0  dtMISS:          0
cpu0_L2C RFO          ACCESS:     155311  HIT:       7639  MISS:     147672  iACCESS:          0  iHIT:          0  iMISS:          0  dACCESS:     155311  dHIT:       7639  dMISS:     147672  itACCESS:          0  itHIT:          0  itMISS:          0  dtACCESS:          0  dtHIT:          0  dtMISS:          0
cpu0_L2C PREFETCH     ACCESS:    4647672  HIT:     875136  MISS:    3772536  iACCESS:    2534066  iHIT:     608148  iMISS:    1925918  dACCESS:    2113606  dHIT:     266988  dMISS:    1846618  itACCESS:          0  itHIT:          0  itMISS:          0  dtACCESS:          0  dtHIT:          0  dtMISS:          0
cpu0_L2C WRITE        ACCESS:     284004  HIT:      56221  MISS:     227783  iACCESS:          0  iHIT:          0  iMISS:          0  dACCESS:     284004  dHIT:      56221  dMISS:     227783  itACCESS:          0  itHIT:          0  itMISS:          0  dtACCESS:          0  dtHIT:          0  dtMISS:          0
cpu0_L2C TRANSLATION  ACCESS:     169893  HIT:     131724  MISS:      38169  iACCESS:          0  iHIT:          0  iMISS:          0  dACCESS:          0  dHIT:          0  dMISS:          0  itACCESS:       5744  itHIT:       2877  itMISS:       2867  dtACCESS:     164149  dtHIT:     128847  dtMISS:      35302
cpu0_L2C PREFETCH  REQUESTED:    1388203  ISSUED:    1388203  CROSSED:          0  USEFUL:     422764  USELESS:     392674
cpu0_L2C AVERAGE iMISS LATENCY: 14.5641 cycles
cpu0_L2C AVERAGE dMISS LATENCY: 24.0196 cycles
cpu0_L2C AVERAGE itMISS LATENCY: 0.0630211 cycles
cpu0_L2C AVERAGE dtMISS LATENCY: 0.911144 cycles
cpu0_L2C PAGE CROSSINGS (TLB HIT):         0 
cpu0_L2C PAGE CROSSINGS (TLB MISS):         0 
cpu0_L2C AVERAGE MISS LATENCY: 39.5578 cycles
LLC TOTAL       ACCESS:    5698927  HIT:    4916888  MISS:     782039  iACCESS:    2561204  iHIT:    2325420  iMISS:     235784  dACCESS:    3099554  dHIT:    2580820  dMISS:     518734  itACCESS:       2867  itHIT:       1123  itMISS:       1744  dtACCESS:      35302  dtHIT:       9525  dtMISS:      25777
LLC LOAD         ACCESS:    1589956  HIT:    1405701  MISS:     184255  iACCESS:     692365  iHIT:     641624  iMISS:      50741  dACCESS:     897591  dHIT:     764077  dMISS:     133514  itACCESS:          0  itHIT:          0  itMISS:          0  dtACCESS:          0  dtHIT:          0  dtMISS:          0
LLC RFO          ACCESS:     147671  HIT:     112686  MISS:      34985  iACCESS:          0  iHIT:          0  iMISS:          0  dACCESS:     147671  dHIT:     112686  dMISS:      34985  itACCESS:          0  itHIT:          0  itMISS:          0  dtACCESS:          0  dtHIT:          0  dtMISS:          0
LLC PREFETCH     ACCESS:    3663392  HIT:    3128121  MISS:     535271  iACCESS:    1868839  iHIT:    1683796  iMISS:     185043  dACCESS:    1794553  dHIT:    1444325  dMISS:     350228  itACCESS:          0  itHIT:          0  itMISS:          0  dtACCESS:          0  dtHIT:          0  dtMISS:          0
LLC WRITE        ACCESS:     259739  HIT:     259732  MISS:          7  iACCESS:          0  iHIT:          0  iMISS:          0  dACCESS:     259739  dHIT:     259732  dMISS:          7  itACCESS:          0  itHIT:          0  itMISS:          0  dtACCESS:          0  dtHIT:          0  dtMISS:          0
LLC TRANSLATION  ACCESS:      38169  HIT:      10648  MISS:      27521  iACCESS:          0  iHIT:          0  iMISS:          0  dACCESS:          0  dHIT:          0  dMISS:          0  itACCESS:       2867  itHIT:       1123  itMISS:       1744  dtACCESS:      35302  dtHIT:       9525  dtMISS:      25777
LLC PREFETCH  REQUESTED:          0  ISSUED:          0  CROSSED:          0  USEFUL:          0  USELESS:          0
LLC AVERAGE iMISS LATENCY: 44.406 cycles
LLC AVERAGE dMISS LATENCY: 107.449 cycles
LLC AVERAGE itMISS LATENCY: 0.393876 cycles
LLC AVERAGE dtMISS LATENCY: 5.84433 cycles
LLC PAGE CROSSINGS (TLB HIT):         0 
LLC PAGE CROSSINGS (TLB MISS):         0 
LLC AVERAGE MISS LATENCY: 158.094 cycles

PageTableWalker TOTAL       ACCESS:      64503  
PageTableWalker AVERAGE LATENCY: 4.61429 cycles
PageTableWalker TOTAL LATENCY: 297635 cycles

DRAM Statistics
Channel 0
 RQ ROW_BUFFER_HIT:     218681
  ROW_BUFFER_MISS:     563231
 AVG DBUS CONGESTED CYCLE:     3.6239
 WQ ROW_BUFFER_HIT:      20085
  ROW_BUFFER_MISS:      29107  FULL:          0

