last_page:0x200000000000000
VMEM_RES_CAP:0x100000
PAGE_SIZE:4096
LOG2_PAGE_SIZE:12
LOG2_PAGE_TABLE_SIZE:9
page_table_levels:5
WARNING: physical memory size is smaller than virtual memory size
FDiP enabled with aggresivity 16

*** ChampSim Multicore Out-of-Order Simulator ***

Warmup Instructions: 50000000
Simulation Instructions: 100000000
Number of CPUs: 1
Small page size: 4096
Large page size: 2097152

CPU 0 Bimodal branch predictor
Basic BTB sets: 1024 ways: 8 indirect buffer size: 4096 RAS size: 64
Instruction page size distrubution: 0
Loading instruction page size distribution from /home/bsc/bsc018186/scratch/itp_asplos25_AE/dump/srv331_ap.pdst
Data page size distrubution: 0
Loading data page size distribution from /home/bsc/bsc018186/scratch/itp_asplos25_AE/dump/srv331_ap.pdst
cpu0_L2C IP-based stride prefetcher
cpu0_L1D next line prefetcher
cpu0_L1I next line prefetcher
Off-chip DRAM Size: 4 GiB Channels: 1 Width: 64-bit Data Rate: 3200 MT/s
Heartbeat CPU 0 instructions: 10000003 cycles: 2500231 heartbeat IPC: 3.99964 cumulative IPC: 3.99964 (Simulation time: 0 hr 0 min 34 sec) 
Heartbeat CPU 0 instructions: 20000003 cycles: 5000324 heartbeat IPC: 3.99986 cumulative IPC: 3.99975 (Simulation time: 0 hr 1 min 11 sec) 
Heartbeat CPU 0 instructions: 30000003 cycles: 7500467 heartbeat IPC: 3.99978 cumulative IPC: 3.99976 (Simulation time: 0 hr 1 min 48 sec) 
Heartbeat CPU 0 instructions: 40000002 cycles: 10000538 heartbeat IPC: 3.99989 cumulative IPC: 3.99979 (Simulation time: 0 hr 2 min 25 sec) 
Heartbeat CPU 0 instructions: 50000002 cycles: 12500564 heartbeat IPC: 3.99996 cumulative IPC: 3.99982 (Simulation time: 0 hr 3 min 2 sec) 
Warmup finished CPU 0 instructions: 50000002 cycles: 12500565 cumulative IPC: 3.99982 (Simulation time: 0 hr 3 min 2 sec) 

Warmup complete CPU 0 instructions: 50000002 cycles: 12500565 (Simulation time: 0 hr 3 min 2 sec) 

Heartbeat CPU 0 instructions: 60000001 cycles: 28171086 heartbeat IPC: 0.638141 cumulative IPC: 0.638141 (Simulation time: 0 hr 4 min 2 sec) 
Heartbeat CPU 0 instructions: 70000002 cycles: 43100971 heartbeat IPC: 0.669798 cumulative IPC: 0.653587 (Simulation time: 0 hr 5 min 2 sec) 
Heartbeat CPU 0 instructions: 80000001 cycles: 58858744 heartbeat IPC: 0.634608 cumulative IPC: 0.647135 (Simulation time: 0 hr 6 min 3 sec) 
Heartbeat CPU 0 instructions: 90000004 cycles: 74392341 heartbeat IPC: 0.643767 cumulative IPC: 0.64629 (Simulation time: 0 hr 7 min 3 sec) 
Heartbeat CPU 0 instructions: 100000000 cycles: 90433718 heartbeat IPC: 0.623388 cumulative IPC: 0.641576 (Simulation time: 0 hr 8 min 4 sec) 
*** Reached end of trace: /gpfs/projects/bsc18/MN4/bsc18/romol/ChampSim/traces/qualcomm_srv/srv331_ap.champsimtrace.xz
Heartbeat CPU 0 instructions: 110000003 cycles: 105531386 heartbeat IPC: 0.662355 cumulative IPC: 0.644948 (Simulation time: 0 hr 9 min 5 sec) 
Heartbeat CPU 0 instructions: 120000004 cycles: 122182218 heartbeat IPC: 0.600571 cumulative IPC: 0.638211 (Simulation time: 0 hr 10 min 7 sec) 
Heartbeat CPU 0 instructions: 130000003 cycles: 137558504 heartbeat IPC: 0.650353 cumulative IPC: 0.639704 (Simulation time: 0 hr 11 min 7 sec) 
Heartbeat CPU 0 instructions: 140000004 cycles: 153130583 heartbeat IPC: 0.642176 cumulative IPC: 0.639978 (Simulation time: 0 hr 12 min 8 sec) 
Heartbeat CPU 0 instructions: 150000000 cycles: 168188554 heartbeat IPC: 0.6641 cumulative IPC: 0.642311 (Simulation time: 0 hr 13 min 9 sec) 
Simulation finished CPU 0 instructions: 100000001 cycles: 155687992 cumulative IPC: 0.642311 (Simulation time: 0 hr 13 min 9 sec) 

Simulation complete CPU 0 instructions: 100000001 cycles: 155687992 (Simulation time: 0 hr 13 min 9 sec) 


ChampSim completed all CPUs

Saving instructions large page distribution to /home/bsc/bsc018186/scratch/itp_asplos25_AE/dump/srv331_ap.pdst...
Saving data large page distribution to /home/bsc/bsc018186/scratch/itp_asplos25_AE/dump/srv331_ap.pdst...
=== Simulation ===
CPU 0 runs /gpfs/projects/bsc18/MN4/bsc18/romol/ChampSim/traces/qualcomm_srv/srv331_ap.champsimtrace.xz

Region of Interest Statistics

CPU 0 cumulative IPC: 0.642311 instructions: 100000001 cycles: 155687992
CPU 0 Branch Prediction Accuracy: 82.5235% MPKI: 31.3422 Average ROB Occupancy at Mispredict: 13.3076
Branch type MPKI
BRANCH_DIRECT_JUMP: 1.05915
BRANCH_INDIRECT: 16.2178
BRANCH_CONDITIONAL: 10.2351
BRANCH_DIRECT_CALL: 1.92153
BRANCH_INDIRECT_CALL: 0.52554
BRANCH_RETURN: 1.38307

Instructions large pages: 0
Instructions small pages: 10465
Large page distribution for instructions: 0%

Data large pages: 0
Data small pages: 9462
Large page distribution for data: 0%

cpu0_L1I TOTAL       ACCESS:   35226798  HIT:   27350488  MISS:    7876310  iACCESS:   35226798  iHIT:   27350488  iMISS:    7876310  dACCESS:          0  dHIT:          0  dMISS:          0  itACCESS:          0  itHIT:          0  itMISS:          0  dtACCESS:          0  dtHIT:          0  dtMISS:          0
cpu0_L1I LOAD         ACCESS:   10325666  HIT:    8112012  MISS:    2213654  iACCESS:   10325666  iHIT:    8112012  iMISS:    2213654  dACCESS:          0  dHIT:          0  dMISS:          0  itACCESS:          0  itHIT:          0  itMISS:          0  dtACCESS:          0  dtHIT:          0  dtMISS:          0
cpu0_L1I RFO          ACCESS:          0  HIT:          0  MISS:          0  iACCESS:          0  iHIT:          0  iMISS:          0  dACCESS:          0  dHIT:          0  dMISS:          0  itACCESS:          0  itHIT:          0  itMISS:          0  dtACCESS:          0  dtHIT:          0  dtMISS:          0
cpu0_L1I PREFETCH     ACCESS:   24901132  HIT:   19238476  MISS:    5662656  iACCESS:   24901132  iHIT:   19238476  iMISS:    5662656  dACCESS:          0  dHIT:          0  dMISS:          0  itACCESS:          0  itHIT:          0  itMISS:          0  dtACCESS:          0  dtHIT:          0  dtMISS:          0
cpu0_L1I WRITE        ACCESS:          0  HIT:          0  MISS:          0  iACCESS:          0  iHIT:          0  iMISS:          0  dACCESS:          0  dHIT:          0  dMISS:          0  itACCESS:          0  itHIT:          0  itMISS:          0  dtACCESS:          0  dtHIT:          0  dtMISS:          0
cpu0_L1I TRANSLATION  ACCESS:          0  HIT:          0  MISS:          0  iACCESS:          0  iHIT:          0  iMISS:          0  dACCESS:          0  dHIT:          0  dMISS:          0  itACCESS:          0  itHIT:          0  itMISS:          0  dtACCESS:          0  dtHIT:          0  dtMISS:          0
cpu0_L1I PREFETCH  REQUESTED:   27429887  ISSUED:   27429887  CROSSED:          0  USEFUL:    1939975  USELESS:     632824
cpu0_L1I AVERAGE iMISS LATENCY: 12.7754 cycles
cpu0_L1I AVERAGE dMISS LATENCY: 0 cycles
cpu0_L1I AVERAGE itMISS LATENCY: 0 cycles
cpu0_L1I AVERAGE dtMISS LATENCY: 0 cycles
cpu0_L1I PAGE CROSSINGS (TLB HIT):         0 
cpu0_L1I PAGE CROSSINGS (TLB MISS):         0 
cpu0_L1I AVERAGE MISS LATENCY: 12.7754 cycles
cpu0_ITLB TOTAL       ACCESS:   29425417  HIT:   27479915  MISS:    1945502  iACCESS:   29425417  iHIT:   27479915  iMISS:    1945502  dACCESS:          0  dHIT:          0  dMISS:          0  itACCESS:          0  itHIT:          0  itMISS:          0  dtACCESS:          0  dtHIT:          0  dtMISS:          0
cpu0_ITLB LOAD         ACCESS:   29425417  HIT:   27479915  MISS:    1945502  iACCESS:   29425417  iHIT:   27479915  iMISS:    1945502  dACCESS:          0  dHIT:          0  dMISS:          0  itACCESS:          0  itHIT:          0  itMISS:          0  dtACCESS:          0  dtHIT:          0  dtMISS:          0
cpu0_ITLB RFO          ACCESS:          0  HIT:          0  MISS:          0  iACCESS:          0  iHIT:          0  iMISS:          0  dACCESS:          0  dHIT:          0  dMISS:          0  itACCESS:          0  itHIT:          0  itMISS:          0  dtACCESS:          0  dtHIT:          0  dtMISS:          0
cpu0_ITLB PREFETCH     ACCESS:          0  HIT:          0  MISS:          0  iACCESS:          0  iHIT:          0  iMISS:          0  dACCESS:          0  dHIT:          0  dMISS:          0  itACCESS:          0  itHIT:          0  itMISS:          0  dtACCESS:          0  dtHIT:          0  dtMISS:          0
cpu0_ITLB WRITE        ACCESS:          0  HIT:          0  MISS:          0  iACCESS:          0  iHIT:          0  iMISS:          0  dACCESS:          0  dHIT:          0  dMISS:          0  itACCESS:          0  itHIT:          0  itMISS:          0  dtACCESS:          0  dtHIT:          0  dtMISS:          0
cpu0_ITLB TRANSLATION  ACCESS:          0  HIT:          0  MISS:          0  iACCESS:          0  iHIT:          0  iMISS:          0  dACCESS:          0  dHIT:          0  dMISS:          0  itACCESS:          0  itHIT:          0  itMISS:          0  dtACCESS:          0  dtHIT:          0  dtMISS:          0
cpu0_ITLB PREFETCH  REQUESTED:          0  ISSUED:          0  CROSSED:          0  USEFUL:     318633  USELESS:      64189
cpu0_ITLB AVERAGE iMISS LATENCY: 5.13807 cycles
cpu0_ITLB AVERAGE dMISS LATENCY: 0 cycles
cpu0_ITLB AVERAGE itMISS LATENCY: 0 cycles
cpu0_ITLB AVERAGE dtMISS LATENCY: 0 cycles
cpu0_ITLB PAGE CROSSINGS (TLB HIT):         0 
cpu0_ITLB PAGE CROSSINGS (TLB MISS):         0 
cpu0_ITLB AVERAGE MISS LATENCY: 5.13807 cycles
cpu0_DTLB TOTAL       ACCESS:   27887519  HIT:   26022301  MISS:    1865218  iACCESS:          0  iHIT:          0  iMISS:          0  dACCESS:   27887519  dHIT:   26022301  dMISS:    1865218  itACCESS:          0  itHIT:          0  itMISS:          0  dtACCESS:          0  dtHIT:          0  dtMISS:          0
cpu0_DTLB LOAD         ACCESS:   27887519  HIT:   26022301  MISS:    1865218  iACCESS:          0  iHIT:          0  iMISS:          0  dACCESS:   27887519  dHIT:   26022301  dMISS:    1865218  itACCESS:          0  itHIT:          0  itMISS:          0  dtACCESS:          0  dtHIT:          0  dtMISS:          0
cpu0_DTLB RFO          ACCESS:          0  HIT:          0  MISS:          0  iACCESS:          0  iHIT:          0  iMISS:          0  dACCESS:          0  dHIT:          0  dMISS:          0  itACCESS:          0  itHIT:          0  itMISS:          0  dtACCESS:          0  dtHIT:          0  dtMISS:          0
cpu0_DTLB PREFETCH     ACCESS:          0  HIT:          0  MISS:          0  iACCESS:          0  iHIT:          0  iMISS:          0  dACCESS:          0  dHIT:          0  dMISS:          0  itACCESS:          0  itHIT:          0  itMISS:          0  dtACCESS:          0  dtHIT:          0  dtMISS:          0
cpu0_DTLB WRITE        ACCESS:          0  HIT:          0  MISS:          0  iACCESS:          0  iHIT:          0  iMISS:          0  dACCESS:          0  dHIT:          0  dMISS:          0  itACCESS:          0  itHIT:          0  itMISS:          0  dtACCESS:          0  dtHIT:          0  dtMISS:          0
cpu0_DTLB TRANSLATION  ACCESS:          0  HIT:          0  MISS:          0  iACCESS:          0  iHIT:          0  iMISS:          0  dACCESS:          0  dHIT:          0  dMISS:          0  itACCESS:          0  itHIT:          0  itMISS:          0  dtACCESS:          0  dtHIT:          0  dtMISS:          0
cpu0_DTLB PREFETCH  REQUESTED:          0  ISSUED:          0  CROSSED:          0  USEFUL:          0  USELESS:          0
cpu0_DTLB AVERAGE iMISS LATENCY: 0 cycles
cpu0_DTLB AVERAGE dMISS LATENCY: 15.9884 cycles
cpu0_DTLB AVERAGE itMISS LATENCY: 0 cycles
cpu0_DTLB AVERAGE dtMISS LATENCY: 0 cycles
cpu0_DTLB PAGE CROSSINGS (TLB HIT):         0 
cpu0_DTLB PAGE CROSSINGS (TLB MISS):         0 
cpu0_DTLB AVERAGE MISS LATENCY: 15.9884 cycles
cpu0_STLB TOTAL       ACCESS:    1542973  HIT:    1371956  MISS:     171017  iACCESS:     382832  iHIT:     323110  iMISS:      59722  dACCESS:    1160141  dHIT:    1048846  dMISS:     111295  itACCESS:          0  itHIT:          0  itMISS:          0  dtACCESS:          0  dtHIT:          0  dtMISS:          0
cpu0_STLB LOAD         ACCESS:    1542973  HIT:    1371956  MISS:     171017  iACCESS:     382832  iHIT:     323110  iMISS:      59722  dACCESS:    1160141  dHIT:    1048846  dMISS:     111295  itACCESS:          0  itHIT:          0  itMISS:          0  dtACCESS:          0  dtHIT:          0  dtMISS:          0
cpu0_STLB RFO          ACCESS:          0  HIT:          0  MISS:          0  iACCESS:          0  iHIT:          0  iMISS:          0  dACCESS:          0  dHIT:          0  dMISS:          0  itACCESS:          0  itHIT:          0  itMISS:          0  dtACCESS:          0  dtHIT:          0  dtMISS:          0
cpu0_STLB PREFETCH     ACCESS:          0  HIT:          0  MISS:          0  iACCESS:          0  iHIT:          0  iMISS:          0  dACCESS:          0  dHIT:          0  dMISS:          0  itACCESS:          0  itHIT:          0  itMISS:          0  dtACCESS:          0  dtHIT:          0  dtMISS:          0
cpu0_STLB WRITE        ACCESS:          0  HIT:          0  MISS:          0  iACCESS:          0  iHIT:          0  iMISS:          0  dACCESS:          0  dHIT:          0  dMISS:          0  itACCESS:          0  itHIT:          0  itMISS:          0  dtACCESS:          0  dtHIT:          0  dtMISS:          0
cpu0_STLB TRANSLATION  ACCESS:          0  HIT:          0  MISS:          0  iACCESS:          0  iHIT:          0  iMISS:          0  dACCESS:          0  dHIT:          0  dMISS:          0  itACCESS:          0  itHIT:          0  itMISS:          0  dtACCESS:          0  dtHIT:          0  dtMISS:          0
cpu0_STLB PREFETCH  REQUESTED:          0  ISSUED:          0  CROSSED:          0  USEFUL:          0  USELESS:          0
cpu0_STLB AVERAGE iMISS LATENCY: 40.7523 cycles
cpu0_STLB AVERAGE dMISS LATENCY: 120.193 cycles
cpu0_STLB AVERAGE itMISS LATENCY: 0 cycles
cpu0_STLB AVERAGE dtMISS LATENCY: 0 cycles
cpu0_STLB PAGE CROSSINGS (TLB HIT):         0 
cpu0_STLB PAGE CROSSINGS (TLB MISS):         0 
cpu0_STLB AVERAGE MISS LATENCY: 160.945 cycles
cpu0_L1D TOTAL       ACCESS:   41630792  HIT:   38204942  MISS:    3425850  iACCESS:          0  iHIT:          0  iMISS:          0  dACCESS:   41401840  dHIT:   38184550  dMISS:    3217290  itACCESS:      64458  itHIT:       9426  itMISS:      55032  dtACCESS:     164494  dtHIT:      10966  dtMISS:     153528
cpu0_L1D LOAD         ACCESS:   19069406  HIT:   17597298  MISS:    1472108  iACCESS:          0  iHIT:          0  iMISS:          0  dACCESS:   19069406  dHIT:   17597298  dMISS:    1472108  itACCESS:          0  itHIT:          0  itMISS:          0  dtACCESS:          0  dtHIT:          0  dtMISS:          0
cpu0_L1D RFO          ACCESS:          0  HIT:          0  MISS:          0  iACCESS:          0  iHIT:          0  iMISS:          0  dACCESS:          0  dHIT:          0  dMISS:          0  itACCESS:          0  itHIT:          0  itMISS:          0  dtACCESS:          0  dtHIT:          0  dtMISS:          0
cpu0_L1D PREFETCH     ACCESS:   12119201  HIT:   10807929  MISS:    1311272  iACCESS:          0  iHIT:          0  iMISS:          0  dACCESS:   12119201  dHIT:   10807929  dMISS:    1311272  itACCESS:          0  itHIT:          0  itMISS:          0  dtACCESS:          0  dtHIT:          0  dtMISS:          0
cpu0_L1D WRITE        ACCESS:   10213233  HIT:    9779323  MISS:     433910  iACCESS:          0  iHIT:          0  iMISS:          0  dACCESS:   10213233  dHIT:    9779323  dMISS:     433910  itACCESS:          0  itHIT:          0  itMISS:          0  dtACCESS:          0  dtHIT:          0  dtMISS:          0
cpu0_L1D TRANSLATION  ACCESS:     228952  HIT:      20392  MISS:     208560  iACCESS:          0  iHIT:          0  iMISS:          0  dACCESS:          0  dHIT:          0  dMISS:          0  itACCESS:      64458  itHIT:       9426  itMISS:      55032  dtACCESS:     164494  dtHIT:      10966  dtMISS:     153528
cpu0_L1D PREFETCH  REQUESTED:   19069406  ISSUED:   16924583  CROSSED:          0  USEFUL:     307965  USELESS:     701713
cpu0_L1D AVERAGE iMISS LATENCY: 0 cycles
cpu0_L1D AVERAGE dMISS LATENCY: 33.9825 cycles
cpu0_L1D AVERAGE itMISS LATENCY: 1.88497 cycles
cpu0_L1D AVERAGE dtMISS LATENCY: 5.30947 cycles
cpu0_L1D PAGE CROSSINGS (TLB HIT):         0 
cpu0_L1D PAGE CROSSINGS (TLB MISS):         0 
cpu0_L1D AVERAGE MISS LATENCY: 41.1769 cycles
cpu0_L2C TOTAL       ACCESS:    7029995  HIT:    4053707  MISS:    2976288  iACCESS:    3325157  iHIT:    2225618  iMISS:    1099539  dACCESS:    3503836  dHIT:    1798530  dMISS:    1705306  itACCESS:      55032  itHIT:       9934  itMISS:      45098  dtACCESS:     145970  dtHIT:      19625  dtMISS:     126345
cpu0_L2C LOAD         ACCESS:    1721699  HIT:    1028808  MISS:     692891  iACCESS:     792066  iHIT:     557181  iMISS:     234885  dACCESS:     929633  dHIT:     471627  dMISS:     458006  itACCESS:          0  itHIT:          0  itMISS:          0  dtACCESS:          0  dtHIT:          0  dtMISS:          0
cpu0_L2C RFO          ACCESS:     159044  HIT:      72682  MISS:      86362  iACCESS:          0  iHIT:          0  iMISS:          0  dACCESS:     159044  dHIT:      72682  dMISS:      86362  itACCESS:          0  itHIT:          0  itMISS:          0  dtACCESS:          0  dtHIT:          0  dtMISS:          0
cpu0_L2C PREFETCH     ACCESS:    4664820  HIT:    2640696  MISS:    2024124  iACCESS:    2533091  iHIT:    1668437  iMISS:     864654  dACCESS:    2131729  dHIT:     972259  dMISS:    1159470  itACCESS:          0  itHIT:          0  itMISS:          0  dtACCESS:          0  dtHIT:          0  dtMISS:          0
cpu0_L2C WRITE        ACCESS:     283430  HIT:     281962  MISS:       1468  iACCESS:          0  iHIT:          0  iMISS:          0  dACCESS:     283430  dHIT:     281962  dMISS:       1468  itACCESS:          0  itHIT:          0  itMISS:          0  dtACCESS:          0  dtHIT:          0  dtMISS:          0
cpu0_L2C TRANSLATION  ACCESS:     201002  HIT:      29559  MISS:     171443  iACCESS:          0  iHIT:          0  iMISS:          0  dACCESS:          0  dHIT:          0  dMISS:          0  itACCESS:      55032  itHIT:       9934  itMISS:      45098  dtACCESS:     145970  dtHIT:      19625  dtMISS:     126345
cpu0_L2C PREFETCH  REQUESTED:    1385456  ISSUED:    1385456  CROSSED:          0  USEFUL:     330364  USELESS:     237353
cpu0_L2C AVERAGE iMISS LATENCY: 23.6771 cycles
cpu0_L2C AVERAGE dMISS LATENCY: 46.3686 cycles
cpu0_L2C AVERAGE itMISS LATENCY: 1.98765 cycles
cpu0_L2C AVERAGE dtMISS LATENCY: 5.62348 cycles
cpu0_L2C PAGE CROSSINGS (TLB HIT):         0 
cpu0_L2C PAGE CROSSINGS (TLB MISS):         0 
cpu0_L2C AVERAGE MISS LATENCY: 77.6567 cycles
LLC TOTAL       ACCESS:    2996296  HIT:    1876407  MISS:    1119889  iACCESS:    1042851  iHIT:     700358  iMISS:     342493  dACCESS:    1782002  dHIT:    1113700  dMISS:     668302  itACCESS:      45098  itHIT:      15650  itMISS:      29448  dtACCESS:     126345  dtHIT:      46699  dtMISS:      79646
LLC LOAD         ACCESS:     691397  HIT:     449825  MISS:     241572  iACCESS:     233588  iHIT:     160869  iMISS:      72719  dACCESS:     457809  dHIT:     288956  dMISS:     168853  itACCESS:          0  itHIT:          0  itMISS:          0  dtACCESS:          0  dtHIT:          0  dtMISS:          0
LLC RFO          ACCESS:      86361  HIT:      43213  MISS:      43148  iACCESS:          0  iHIT:          0  iMISS:          0  dACCESS:      86361  dHIT:      43213  dMISS:      43148  itACCESS:          0  itHIT:          0  itMISS:          0  dtACCESS:          0  dtHIT:          0  dtMISS:          0
LLC PREFETCH     ACCESS:    1911740  HIT:    1192137  MISS:     719603  iACCESS:     809263  iHIT:     539489  iMISS:     269774  dACCESS:    1102477  dHIT:     652648  dMISS:     449829  itACCESS:          0  itHIT:          0  itMISS:          0  dtACCESS:          0  dtHIT:          0  dtMISS:          0
LLC WRITE        ACCESS:     135355  HIT:     128883  MISS:       6472  iACCESS:          0  iHIT:          0  iMISS:          0  dACCESS:     135355  dHIT:     128883  dMISS:       6472  itACCESS:          0  itHIT:          0  itMISS:          0  dtACCESS:          0  dtHIT:          0  dtMISS:          0
LLC TRANSLATION  ACCESS:     171443  HIT:      62349  MISS:     109094  iACCESS:          0  iHIT:          0  iMISS:          0  dACCESS:          0  dHIT:          0  dMISS:          0  itACCESS:      45098  itHIT:      15650  itMISS:      29448  dtACCESS:     126345  dtHIT:      46699  dtMISS:      79646
LLC PREFETCH  REQUESTED:          0  ISSUED:          0  CROSSED:          0  USEFUL:          0  USELESS:          0
LLC AVERAGE iMISS LATENCY: 44.8173 cycles
LLC AVERAGE dMISS LATENCY: 94.7447 cycles
LLC AVERAGE itMISS LATENCY: 4.49295 cycles
LLC AVERAGE dtMISS LATENCY: 12.737 cycles
LLC PAGE CROSSINGS (TLB HIT):         0 
LLC PAGE CROSSINGS (TLB MISS):         0 
LLC AVERAGE MISS LATENCY: 156.792 cycles

PageTableWalker TOTAL       ACCESS:      86758  
PageTableWalker AVERAGE LATENCY: 5.20092 cycles
PageTableWalker TOTAL LATENCY: 451221 cycles

DRAM Statistics
Channel 0
 RQ ROW_BUFFER_HIT:     296688
  ROW_BUFFER_MISS:     816679
 AVG DBUS CONGESTED CYCLE:    3.61871
 WQ ROW_BUFFER_HIT:      22029
  ROW_BUFFER_MISS:      21919  FULL:          0

