last_page:0x200000000000000
VMEM_RES_CAP:0x100000
PAGE_SIZE:4096
LOG2_PAGE_SIZE:12
LOG2_PAGE_TABLE_SIZE:9
page_table_levels:5
WARNING: physical memory size is smaller than virtual memory size
FDiP enabled with aggresivity 16

*** ChampSim Multicore Out-of-Order Simulator ***

Warmup Instructions: 50000000
Simulation Instructions: 100000000
Number of CPUs: 1
Small page size: 4096
Large page size: 2097152

CPU 0 Bimodal branch predictor
Basic BTB sets: 1024 ways: 8 indirect buffer size: 4096 RAS size: 64
Instruction page size distrubution: 0
Loading instruction page size distribution from /home/bsc/bsc018186/scratch/itp_asplos25_AE/dump/srv331_ap.pdst
Data page size distrubution: 0
Loading data page size distribution from /home/bsc/bsc018186/scratch/itp_asplos25_AE/dump/srv331_ap.pdst
cpu0_L2C IP-based stride prefetcher
cpu0_L1D next line prefetcher
cpu0_STLB using iTP with max lru@8
cpu0_STLB using iTP with instr@0 and data@2
Init sat counter with 3 bits (max:50).
cpu0_L1I next line prefetcher
Off-chip DRAM Size: 4 GiB Channels: 1 Width: 64-bit Data Rate: 3200 MT/s
Heartbeat CPU 0 instructions: 10000002 cycles: 2500212 heartbeat IPC: 3.99967 cumulative IPC: 3.99967 (Simulation time: 0 hr 0 min 38 sec) 
Heartbeat CPU 0 instructions: 20000001 cycles: 5000268 heartbeat IPC: 3.99992 cumulative IPC: 3.99979 (Simulation time: 0 hr 1 min 17 sec) 
Heartbeat CPU 0 instructions: 30000002 cycles: 7500416 heartbeat IPC: 3.99977 cumulative IPC: 3.99978 (Simulation time: 0 hr 1 min 57 sec) 
Heartbeat CPU 0 instructions: 40000002 cycles: 10000480 heartbeat IPC: 3.9999 cumulative IPC: 3.99981 (Simulation time: 0 hr 2 min 37 sec) 
Heartbeat CPU 0 instructions: 50000001 cycles: 12500481 heartbeat IPC: 4 cumulative IPC: 3.99985 (Simulation time: 0 hr 3 min 17 sec) 
Warmup finished CPU 0 instructions: 50000001 cycles: 12500482 cumulative IPC: 3.99985 (Simulation time: 0 hr 3 min 17 sec) 

Warmup complete CPU 0 instructions: 50000001 cycles: 12500482 (Simulation time: 0 hr 3 min 17 sec) 

Heartbeat CPU 0 instructions: 60000001 cycles: 27544544 heartbeat IPC: 0.664715 cumulative IPC: 0.664715 (Simulation time: 0 hr 4 min 21 sec) 
Heartbeat CPU 0 instructions: 70000002 cycles: 41969368 heartbeat IPC: 0.69325 cumulative IPC: 0.678682 (Simulation time: 0 hr 5 min 24 sec) 
Heartbeat CPU 0 instructions: 80000001 cycles: 57099044 heartbeat IPC: 0.660953 cumulative IPC: 0.672668 (Simulation time: 0 hr 6 min 29 sec) 
Heartbeat CPU 0 instructions: 90000004 cycles: 72080161 heartbeat IPC: 0.667508 cumulative IPC: 0.67137 (Simulation time: 0 hr 7 min 33 sec) 
Heartbeat CPU 0 instructions: 100000000 cycles: 87600930 heartbeat IPC: 0.644298 cumulative IPC: 0.665775 (Simulation time: 0 hr 8 min 38 sec) 
*** Reached end of trace: /gpfs/projects/bsc18/MN4/bsc18/romol/ChampSim/traces/qualcomm_srv/srv331_ap.champsimtrace.xz
Heartbeat CPU 0 instructions: 110000003 cycles: 102236466 heartbeat IPC: 0.683269 cumulative IPC: 0.668629 (Simulation time: 0 hr 9 min 42 sec) 
Heartbeat CPU 0 instructions: 120000004 cycles: 118441808 heartbeat IPC: 0.617081 cumulative IPC: 0.660744 (Simulation time: 0 hr 10 min 47 sec) 
Heartbeat CPU 0 instructions: 130000003 cycles: 133344134 heartbeat IPC: 0.671037 cumulative IPC: 0.662013 (Simulation time: 0 hr 11 min 52 sec) 
Heartbeat CPU 0 instructions: 140000004 cycles: 148398276 heartbeat IPC: 0.66427 cumulative IPC: 0.662263 (Simulation time: 0 hr 12 min 56 sec) 
Heartbeat CPU 0 instructions: 150000000 cycles: 162910354 heartbeat IPC: 0.689081 cumulative IPC: 0.66485 (Simulation time: 0 hr 14 min 0 sec) 
Simulation finished CPU 0 instructions: 100000000 cycles: 150409874 cumulative IPC: 0.66485 (Simulation time: 0 hr 14 min 0 sec) 

Simulation complete CPU 0 instructions: 100000000 cycles: 150409874 (Simulation time: 0 hr 14 min 0 sec) 


ChampSim completed all CPUs

Saving instructions large page distribution to /home/bsc/bsc018186/scratch/itp_asplos25_AE/dump/srv331_ap.pdst...
Saving data large page distribution to /home/bsc/bsc018186/scratch/itp_asplos25_AE/dump/srv331_ap.pdst...
=== Simulation ===
CPU 0 runs /gpfs/projects/bsc18/MN4/bsc18/romol/ChampSim/traces/qualcomm_srv/srv331_ap.champsimtrace.xz

Region of Interest Statistics

CPU 0 cumulative IPC: 0.66485 instructions: 100000000 cycles: 150409874
CPU 0 Branch Prediction Accuracy: 82.5235% MPKI: 31.3422 Average ROB Occupancy at Mispredict: 13.2814
Branch type MPKI
BRANCH_DIRECT_JUMP: 1.05916
BRANCH_INDIRECT: 16.2178
BRANCH_CONDITIONAL: 10.2351
BRANCH_DIRECT_CALL: 1.92154
BRANCH_INDIRECT_CALL: 0.525541
BRANCH_RETURN: 1.38308

Instructions large pages: 0
Instructions small pages: 10465
Large page distribution for instructions: 0%

Data large pages: 0
Data small pages: 9462
Large page distribution for data: 0%

cpu0_L1I TOTAL       ACCESS:   35229105  HIT:   27358426  MISS:    7870679  iACCESS:   35229105  iHIT:   27358426  iMISS:    7870679  dACCESS:          0  dHIT:          0  dMISS:          0  itACCESS:          0  itHIT:          0  itMISS:          0  dtACCESS:          0  dtHIT:          0  dtMISS:          0
cpu0_L1I LOAD         ACCESS:   10325656  HIT:    8114409  MISS:    2211247  iACCESS:   10325656  iHIT:    8114409  iMISS:    2211247  dACCESS:          0  dHIT:          0  dMISS:          0  itACCESS:          0  itHIT:          0  itMISS:          0  dtACCESS:          0  dtHIT:          0  dtMISS:          0
cpu0_L1I RFO          ACCESS:          0  HIT:          0  MISS:          0  iACCESS:          0  iHIT:          0  iMISS:          0  dACCESS:          0  dHIT:          0  dMISS:          0  itACCESS:          0  itHIT:          0  itMISS:          0  dtACCESS:          0  dtHIT:          0  dtMISS:          0
cpu0_L1I PREFETCH     ACCESS:   24903449  HIT:   19244017  MISS:    5659432  iACCESS:   24903449  iHIT:   19244017  iMISS:    5659432  dACCESS:          0  dHIT:          0  dMISS:          0  itACCESS:          0  itHIT:          0  itMISS:          0  dtACCESS:          0  dtHIT:          0  dtMISS:          0
cpu0_L1I WRITE        ACCESS:          0  HIT:          0  MISS:          0  iACCESS:          0  iHIT:          0  iMISS:          0  dACCESS:          0  dHIT:          0  dMISS:          0  itACCESS:          0  itHIT:          0  itMISS:          0  dtACCESS:          0  dtHIT:          0  dtMISS:          0
cpu0_L1I TRANSLATION  ACCESS:          0  HIT:          0  MISS:          0  iACCESS:          0  iHIT:          0  iMISS:          0  dACCESS:          0  dHIT:          0  dMISS:          0  itACCESS:          0  itHIT:          0  itMISS:          0  dtACCESS:          0  dtHIT:          0  dtMISS:          0
cpu0_L1I PREFETCH  REQUESTED:   27430886  ISSUED:   27430886  CROSSED:          0  USEFUL:    1942426  USELESS:     633077
cpu0_L1I AVERAGE iMISS LATENCY: 12.5674 cycles
cpu0_L1I AVERAGE dMISS LATENCY: 0 cycles
cpu0_L1I AVERAGE itMISS LATENCY: 0 cycles
cpu0_L1I AVERAGE dtMISS LATENCY: 0 cycles
cpu0_L1I PAGE CROSSINGS (TLB HIT):         0 
cpu0_L1I PAGE CROSSINGS (TLB MISS):         0 
cpu0_L1I AVERAGE MISS LATENCY: 12.5674 cycles
cpu0_ITLB TOTAL       ACCESS:   29425092  HIT:   27485181  MISS:    1939911  iACCESS:   29425092  iHIT:   27485181  iMISS:    1939911  dACCESS:          0  dHIT:          0  dMISS:          0  itACCESS:          0  itHIT:          0  itMISS:          0  dtACCESS:          0  dtHIT:          0  dtMISS:          0
cpu0_ITLB LOAD         ACCESS:   29425092  HIT:   27485181  MISS:    1939911  iACCESS:   29425092  iHIT:   27485181  iMISS:    1939911  dACCESS:          0  dHIT:          0  dMISS:          0  itACCESS:          0  itHIT:          0  itMISS:          0  dtACCESS:          0  dtHIT:          0  dtMISS:          0
cpu0_ITLB RFO          ACCESS:          0  HIT:          0  MISS:          0  iACCESS:          0  iHIT:          0  iMISS:          0  dACCESS:          0  dHIT:          0  dMISS:          0  itACCESS:          0  itHIT:          0  itMISS:          0  dtACCESS:          0  dtHIT:          0  dtMISS:          0
cpu0_ITLB PREFETCH     ACCESS:          0  HIT:          0  MISS:          0  iACCESS:          0  iHIT:          0  iMISS:          0  dACCESS:          0  dHIT:          0  dMISS:          0  itACCESS:          0  itHIT:          0  itMISS:          0  dtACCESS:          0  dtHIT:          0  dtMISS:          0
cpu0_ITLB WRITE        ACCESS:          0  HIT:          0  MISS:          0  iACCESS:          0  iHIT:          0  iMISS:          0  dACCESS:          0  dHIT:          0  dMISS:          0  itACCESS:          0  itHIT:          0  itMISS:          0  dtACCESS:          0  dtHIT:          0  dtMISS:          0
cpu0_ITLB TRANSLATION  ACCESS:          0  HIT:          0  MISS:          0  iACCESS:          0  iHIT:          0  iMISS:          0  dACCESS:          0  dHIT:          0  dMISS:          0  itACCESS:          0  itHIT:          0  itMISS:          0  dtACCESS:          0  dtHIT:          0  dtMISS:          0
cpu0_ITLB PREFETCH  REQUESTED:          0  ISSUED:          0  CROSSED:          0  USEFUL:     318819  USELESS:      64005
cpu0_ITLB AVERAGE iMISS LATENCY: 2.207 cycles
cpu0_ITLB AVERAGE dMISS LATENCY: 0 cycles
cpu0_ITLB AVERAGE itMISS LATENCY: 0 cycles
cpu0_ITLB AVERAGE dtMISS LATENCY: 0 cycles
cpu0_ITLB PAGE CROSSINGS (TLB HIT):         0 
cpu0_ITLB PAGE CROSSINGS (TLB MISS):         0 
cpu0_ITLB AVERAGE MISS LATENCY: 2.207 cycles
cpu0_DTLB TOTAL       ACCESS:   27894509  HIT:   26021639  MISS:    1872870  iACCESS:          0  iHIT:          0  iMISS:          0  dACCESS:   27894509  dHIT:   26021639  dMISS:    1872870  itACCESS:          0  itHIT:          0  itMISS:          0  dtACCESS:          0  dtHIT:          0  dtMISS:          0
cpu0_DTLB LOAD         ACCESS:   27894509  HIT:   26021639  MISS:    1872870  iACCESS:          0  iHIT:          0  iMISS:          0  dACCESS:   27894509  dHIT:   26021639  dMISS:    1872870  itACCESS:          0  itHIT:          0  itMISS:          0  dtACCESS:          0  dtHIT:          0  dtMISS:          0
cpu0_DTLB RFO          ACCESS:          0  HIT:          0  MISS:          0  iACCESS:          0  iHIT:          0  iMISS:          0  dACCESS:          0  dHIT:          0  dMISS:          0  itACCESS:          0  itHIT:          0  itMISS:          0  dtACCESS:          0  dtHIT:          0  dtMISS:          0
cpu0_DTLB PREFETCH     ACCESS:          0  HIT:          0  MISS:          0  iACCESS:          0  iHIT:          0  iMISS:          0  dACCESS:          0  dHIT:          0  dMISS:          0  itACCESS:          0  itHIT:          0  itMISS:          0  dtACCESS:          0  dtHIT:          0  dtMISS:          0
cpu0_DTLB WRITE        ACCESS:          0  HIT:          0  MISS:          0  iACCESS:          0  iHIT:          0  iMISS:          0  dACCESS:          0  dHIT:          0  dMISS:          0  itACCESS:          0  itHIT:          0  itMISS:          0  dtACCESS:          0  dtHIT:          0  dtMISS:          0
cpu0_DTLB TRANSLATION  ACCESS:          0  HIT:          0  MISS:          0  iACCESS:          0  iHIT:          0  iMISS:          0  dACCESS:          0  dHIT:          0  dMISS:          0  itACCESS:          0  itHIT:          0  itMISS:          0  dtACCESS:          0  dtHIT:          0  dtMISS:          0
cpu0_DTLB PREFETCH  REQUESTED:          0  ISSUED:          0  CROSSED:          0  USEFUL:          0  USELESS:          0
cpu0_DTLB AVERAGE iMISS LATENCY: 0 cycles
cpu0_DTLB AVERAGE dMISS LATENCY: 17.3557 cycles
cpu0_DTLB AVERAGE itMISS LATENCY: 0 cycles
cpu0_DTLB AVERAGE dtMISS LATENCY: 0 cycles
cpu0_DTLB PAGE CROSSINGS (TLB HIT):         0 
cpu0_DTLB PAGE CROSSINGS (TLB MISS):         0 
cpu0_DTLB AVERAGE MISS LATENCY: 17.3557 cycles
cpu0_STLB TOTAL       ACCESS:    1542930  HIT:    1396225  MISS:     146705  iACCESS:     382832  iHIT:     373539  iMISS:       9293  dACCESS:    1160098  dHIT:    1022686  dMISS:     137412  itACCESS:          0  itHIT:          0  itMISS:          0  dtACCESS:          0  dtHIT:          0  dtMISS:          0
cpu0_STLB LOAD         ACCESS:    1542930  HIT:    1396225  MISS:     146705  iACCESS:     382832  iHIT:     373539  iMISS:       9293  dACCESS:    1160098  dHIT:    1022686  dMISS:     137412  itACCESS:          0  itHIT:          0  itMISS:          0  dtACCESS:          0  dtHIT:          0  dtMISS:          0
cpu0_STLB RFO          ACCESS:          0  HIT:          0  MISS:          0  iACCESS:          0  iHIT:          0  iMISS:          0  dACCESS:          0  dHIT:          0  dMISS:          0  itACCESS:          0  itHIT:          0  itMISS:          0  dtACCESS:          0  dtHIT:          0  dtMISS:          0
cpu0_STLB PREFETCH     ACCESS:          0  HIT:          0  MISS:          0  iACCESS:          0  iHIT:          0  iMISS:          0  dACCESS:          0  dHIT:          0  dMISS:          0  itACCESS:          0  itHIT:          0  itMISS:          0  dtACCESS:          0  dtHIT:          0  dtMISS:          0
cpu0_STLB WRITE        ACCESS:          0  HIT:          0  MISS:          0  iACCESS:          0  iHIT:          0  iMISS:          0  dACCESS:          0  dHIT:          0  dMISS:          0  itACCESS:          0  itHIT:          0  itMISS:          0  dtACCESS:          0  dtHIT:          0  dtMISS:          0
cpu0_STLB TRANSLATION  ACCESS:          0  HIT:          0  MISS:          0  iACCESS:          0  iHIT:          0  iMISS:          0  dACCESS:          0  dHIT:          0  dMISS:          0  itACCESS:          0  itHIT:          0  itMISS:          0  dtACCESS:          0  dtHIT:          0  dtMISS:          0
cpu0_STLB PREFETCH  REQUESTED:          0  ISSUED:          0  CROSSED:          0  USEFUL:          0  USELESS:          0
cpu0_STLB AVERAGE iMISS LATENCY: 8.94684 cycles
cpu0_STLB AVERAGE dMISS LATENCY: 158.228 cycles
cpu0_STLB AVERAGE itMISS LATENCY: 0 cycles
cpu0_STLB AVERAGE dtMISS LATENCY: 0 cycles
cpu0_STLB PAGE CROSSINGS (TLB HIT):         0 
cpu0_STLB PAGE CROSSINGS (TLB MISS):         0 
cpu0_STLB AVERAGE MISS LATENCY: 167.174 cycles
cpu0_L1D TOTAL       ACCESS:   41648145  HIT:   38207695  MISS:    3440450  iACCESS:          0  iHIT:          0  iMISS:          0  dACCESS:   41433544  dHIT:   38193977  dMISS:    3239567  itACCESS:      10800  itHIT:       1289  itMISS:       9511  dtACCESS:     203801  dtHIT:      12429  dtMISS:     191372
cpu0_L1D LOAD         ACCESS:   19082617  HIT:   17606148  MISS:    1476469  iACCESS:          0  iHIT:          0  iMISS:          0  dACCESS:   19082617  dHIT:   17606148  dMISS:    1476469  itACCESS:          0  itHIT:          0  itMISS:          0  dtACCESS:          0  dtHIT:          0  dtMISS:          0
cpu0_L1D RFO          ACCESS:          0  HIT:          0  MISS:          0  iACCESS:          0  iHIT:          0  iMISS:          0  dACCESS:          0  dHIT:          0  dMISS:          0  itACCESS:          0  itHIT:          0  itMISS:          0  dtACCESS:          0  dtHIT:          0  dtMISS:          0
cpu0_L1D PREFETCH     ACCESS:   12134758  HIT:   10809727  MISS:    1325031  iACCESS:          0  iHIT:          0  iMISS:          0  dACCESS:   12134758  dHIT:   10809727  dMISS:    1325031  itACCESS:          0  itHIT:          0  itMISS:          0  dtACCESS:          0  dtHIT:          0  dtMISS:          0
cpu0_L1D WRITE        ACCESS:   10216169  HIT:    9778102  MISS:     438067  iACCESS:          0  iHIT:          0  iMISS:          0  dACCESS:   10216169  dHIT:    9778102  dMISS:     438067  itACCESS:          0  itHIT:          0  itMISS:          0  dtACCESS:          0  dtHIT:          0  dtMISS:          0
cpu0_L1D TRANSLATION  ACCESS:     214601  HIT:      13718  MISS:     200883  iACCESS:          0  iHIT:          0  iMISS:          0  dACCESS:          0  dHIT:          0  dMISS:          0  itACCESS:      10800  itHIT:       1289  itMISS:       9511  dtACCESS:     203801  dtHIT:      12429  dtMISS:     191372
cpu0_L1D PREFETCH  REQUESTED:   19082617  ISSUED:   16935860  CROSSED:          0  USEFUL:     307753  USELESS:     700942
cpu0_L1D AVERAGE iMISS LATENCY: 0 cycles
cpu0_L1D AVERAGE dMISS LATENCY: 32.9238 cycles
cpu0_L1D AVERAGE itMISS LATENCY: 0.352954 cycles
cpu0_L1D AVERAGE dtMISS LATENCY: 5.97674 cycles
cpu0_L1D PAGE CROSSINGS (TLB HIT):         0 
cpu0_L1D PAGE CROSSINGS (TLB MISS):         0 
cpu0_L1D AVERAGE MISS LATENCY: 39.2535 cycles
cpu0_L2C TOTAL       ACCESS:    7019824  HIT:    4050875  MISS:    2968949  iACCESS:    3325921  iHIT:    2224286  iMISS:    1101635  dACCESS:    3501891  dHIT:    1792726  dMISS:    1709165  itACCESS:       9499  itHIT:       1964  itMISS:       7535  dtACCESS:     182513  dtHIT:      31899  dtMISS:     150614
cpu0_L2C LOAD         ACCESS:    1718971  HIT:    1026976  MISS:     691995  iACCESS:     789604  iHIT:     557517  iMISS:     232087  dACCESS:     929367  dHIT:     469459  dMISS:     459908  itACCESS:          0  itHIT:          0  itMISS:          0  dtACCESS:          0  dtHIT:          0  dtMISS:          0
cpu0_L2C RFO          ACCESS:     158705  HIT:      72046  MISS:      86659  iACCESS:          0  iHIT:          0  iMISS:          0  dACCESS:     158705  dHIT:      72046  dMISS:      86659  itACCESS:          0  itHIT:          0  itMISS:          0  dtACCESS:          0  dtHIT:          0  dtMISS:          0
cpu0_L2C PREFETCH     ACCESS:    4667717  HIT:    2636896  MISS:    2030821  iACCESS:    2536317  iHIT:    1666769  iMISS:     869548  dACCESS:    2131400  dHIT:     970127  dMISS:    1161273  itACCESS:          0  itHIT:          0  itMISS:          0  dtACCESS:          0  dtHIT:          0  dtMISS:          0
cpu0_L2C WRITE        ACCESS:     282419  HIT:     281094  MISS:       1325  iACCESS:          0  iHIT:          0  iMISS:          0  dACCESS:     282419  dHIT:     281094  dMISS:       1325  itACCESS:          0  itHIT:          0  itMISS:          0  dtACCESS:          0  dtHIT:          0  dtMISS:          0
cpu0_L2C TRANSLATION  ACCESS:     192012  HIT:      33863  MISS:     158149  iACCESS:          0  iHIT:          0  iMISS:          0  dACCESS:          0  dHIT:          0  dMISS:          0  itACCESS:       9499  itHIT:       1964  itMISS:       7535  dtACCESS:     182513  dtHIT:      31899  dtMISS:     150614
cpu0_L2C PREFETCH  REQUESTED:    1388501  ISSUED:    1388501  CROSSED:          0  USEFUL:     332608  USELESS:     238010
cpu0_L2C AVERAGE iMISS LATENCY: 23.1363 cycles
cpu0_L2C AVERAGE dMISS LATENCY: 44.3994 cycles
cpu0_L2C AVERAGE itMISS LATENCY: 0.377528 cycles
cpu0_L2C AVERAGE dtMISS LATENCY: 6.3171 cycles
cpu0_L2C PAGE CROSSINGS (TLB HIT):         0 
cpu0_L2C PAGE CROSSINGS (TLB MISS):         0 
cpu0_L2C AVERAGE MISS LATENCY: 74.2303 cycles
LLC TOTAL       ACCESS:    2995161  HIT:    1956484  MISS:    1038677  iACCESS:    1046652  iHIT:     722723  iMISS:     323929  dACCESS:    1790360  dHIT:    1170238  dMISS:     620122  itACCESS:       7535  itHIT:       2017  itMISS:       5518  dtACCESS:     150614  dtHIT:      61506  dtMISS:      89108
LLC LOAD         ACCESS:     690594  HIT:     460057  MISS:     230537  iACCESS:     231068  iHIT:     159046  iMISS:      72022  dACCESS:     459526  dHIT:     301011  dMISS:     158515  itACCESS:          0  itHIT:          0  itMISS:          0  dtACCESS:          0  dtHIT:          0  dtMISS:          0
LLC RFO          ACCESS:      86659  HIT:      46008  MISS:      40651  iACCESS:          0  iHIT:          0  iMISS:          0  dACCESS:      86659  dHIT:      46008  dMISS:      40651  itACCESS:          0  itHIT:          0  itMISS:          0  dtACCESS:          0  dtHIT:          0  dtMISS:          0
LLC PREFETCH     ACCESS:    1924715  HIT:    1257508  MISS:     667207  iACCESS:     815584  iHIT:     563677  iMISS:     251907  dACCESS:    1109131  dHIT:     693831  dMISS:     415300  itACCESS:          0  itHIT:          0  itMISS:          0  dtACCESS:          0  dtHIT:          0  dtMISS:          0
LLC WRITE        ACCESS:     135044  HIT:     129388  MISS:       5656  iACCESS:          0  iHIT:          0  iMISS:          0  dACCESS:     135044  dHIT:     129388  dMISS:       5656  itACCESS:          0  itHIT:          0  itMISS:          0  dtACCESS:          0  dtHIT:          0  dtMISS:          0
LLC TRANSLATION  ACCESS:     158149  HIT:      63523  MISS:      94626  iACCESS:          0  iHIT:          0  iMISS:          0  dACCESS:          0  dHIT:          0  dMISS:          0  itACCESS:       7535  itHIT:       2017  itMISS:       5518  dtACCESS:     150614  dtHIT:      61506  dtMISS:      89108
LLC PREFETCH  REQUESTED:          0  ISSUED:          0  CROSSED:          0  USEFUL:          0  USELESS:          0
LLC AVERAGE iMISS LATENCY: 46.5823 cycles
LLC AVERAGE dMISS LATENCY: 96.0569 cycles
LLC AVERAGE itMISS LATENCY: 0.936402 cycles
LLC AVERAGE dtMISS LATENCY: 15.2226 cycles
LLC PAGE CROSSINGS (TLB HIT):         0 
LLC PAGE CROSSINGS (TLB MISS):         0 
LLC AVERAGE MISS LATENCY: 158.799 cycles

PageTableWalker TOTAL       ACCESS:      73137  
PageTableWalker AVERAGE LATENCY: 5.64516 cycles
PageTableWalker TOTAL LATENCY: 412870 cycles

DRAM Statistics
Channel 0
 RQ ROW_BUFFER_HIT:     268294
  ROW_BUFFER_MISS:     764672
 AVG DBUS CONGESTED CYCLE:    3.61765
 WQ ROW_BUFFER_HIT:      20564
  ROW_BUFFER_MISS:      21743  FULL:          0

