last_page:0x200000000000000
VMEM_RES_CAP:0x100000
PAGE_SIZE:4096
LOG2_PAGE_SIZE:12
LOG2_PAGE_TABLE_SIZE:9
page_table_levels:5
WARNING: physical memory size is smaller than virtual memory size
FDiP enabled with aggresivity 16

*** ChampSim Multicore Out-of-Order Simulator ***

Warmup Instructions: 50000000
Simulation Instructions: 100000000
Number of CPUs: 1
Small page size: 4096
Large page size: 2097152

CPU 0 Bimodal branch predictor
Basic BTB sets: 1024 ways: 8 indirect buffer size: 4096 RAS size: 64
Instruction page size distrubution: 0
Loading instruction page size distribution from /home/bsc/bsc018186/scratch/itp_asplos25_AE/dump/srv358_ap.pdst
Data page size distrubution: 0
Loading data page size distribution from /home/bsc/bsc018186/scratch/itp_asplos25_AE/dump/srv358_ap.pdst
cpu0_L2C IP-based stride prefetcher
cpu0_L1D next line prefetcher
cpu0_STLB using iTP with max lru@8
cpu0_STLB using iTP with instr@0 and data@2
Init sat counter with 3 bits (max:50).
cpu0_L1I next line prefetcher
Off-chip DRAM Size: 4 GiB Channels: 1 Width: 64-bit Data Rate: 3200 MT/s
Heartbeat CPU 0 instructions: 10000001 cycles: 2500225 heartbeat IPC: 3.99965 cumulative IPC: 3.99965 (Simulation time: 0 hr 0 min 38 sec) 
Heartbeat CPU 0 instructions: 20000000 cycles: 5000244 heartbeat IPC: 3.99997 cumulative IPC: 3.99981 (Simulation time: 0 hr 1 min 17 sec) 
Heartbeat CPU 0 instructions: 30000001 cycles: 7500262 heartbeat IPC: 3.99998 cumulative IPC: 3.99987 (Simulation time: 0 hr 1 min 57 sec) 
Heartbeat CPU 0 instructions: 40000003 cycles: 10000339 heartbeat IPC: 3.99988 cumulative IPC: 3.99987 (Simulation time: 0 hr 2 min 38 sec) 
Heartbeat CPU 0 instructions: 50000002 cycles: 12500378 heartbeat IPC: 3.99994 cumulative IPC: 3.99988 (Simulation time: 0 hr 3 min 18 sec) 
Warmup finished CPU 0 instructions: 50000002 cycles: 12500379 cumulative IPC: 3.99988 (Simulation time: 0 hr 3 min 18 sec) 

Warmup complete CPU 0 instructions: 50000002 cycles: 12500379 (Simulation time: 0 hr 3 min 18 sec) 

Heartbeat CPU 0 instructions: 60000003 cycles: 27412754 heartbeat IPC: 0.670585 cumulative IPC: 0.670585 (Simulation time: 0 hr 4 min 21 sec) 
Heartbeat CPU 0 instructions: 70000000 cycles: 41604028 heartbeat IPC: 0.704659 cumulative IPC: 0.687199 (Simulation time: 0 hr 5 min 23 sec) 
Heartbeat CPU 0 instructions: 80000000 cycles: 56428393 heartbeat IPC: 0.674566 cumulative IPC: 0.682936 (Simulation time: 0 hr 6 min 27 sec) 
Heartbeat CPU 0 instructions: 90000000 cycles: 70299727 heartbeat IPC: 0.720912 cumulative IPC: 0.69205 (Simulation time: 0 hr 7 min 29 sec) 
Heartbeat CPU 0 instructions: 100000000 cycles: 85850436 heartbeat IPC: 0.643058 cumulative IPC: 0.681663 (Simulation time: 0 hr 8 min 33 sec) 
*** Reached end of trace: /gpfs/projects/bsc18/MN4/bsc18/romol/ChampSim/traces/qualcomm_srv/srv358_ap.champsimtrace.xz
Heartbeat CPU 0 instructions: 110000004 cycles: 101093195 heartbeat IPC: 0.65605 cumulative IPC: 0.677256 (Simulation time: 0 hr 9 min 37 sec) 
Heartbeat CPU 0 instructions: 120000002 cycles: 116115696 heartbeat IPC: 0.665668 cumulative IPC: 0.675576 (Simulation time: 0 hr 10 min 41 sec) 
Heartbeat CPU 0 instructions: 130000001 cycles: 130624788 heartbeat IPC: 0.689223 cumulative IPC: 0.677253 (Simulation time: 0 hr 11 min 44 sec) 
Heartbeat CPU 0 instructions: 140000003 cycles: 145999071 heartbeat IPC: 0.650437 cumulative IPC: 0.674164 (Simulation time: 0 hr 12 min 48 sec) 
Heartbeat CPU 0 instructions: 150000002 cycles: 161124445 heartbeat IPC: 0.661141 cumulative IPC: 0.672839 (Simulation time: 0 hr 13 min 52 sec) 
Simulation finished CPU 0 instructions: 100000000 cycles: 148624067 cumulative IPC: 0.672839 (Simulation time: 0 hr 13 min 52 sec) 

Simulation complete CPU 0 instructions: 100000000 cycles: 148624067 (Simulation time: 0 hr 13 min 52 sec) 


ChampSim completed all CPUs

Saving instructions large page distribution to /home/bsc/bsc018186/scratch/itp_asplos25_AE/dump/srv358_ap.pdst...
Saving data large page distribution to /home/bsc/bsc018186/scratch/itp_asplos25_AE/dump/srv358_ap.pdst...
=== Simulation ===
CPU 0 runs /gpfs/projects/bsc18/MN4/bsc18/romol/ChampSim/traces/qualcomm_srv/srv358_ap.champsimtrace.xz

Region of Interest Statistics

CPU 0 cumulative IPC: 0.672839 instructions: 100000000 cycles: 148624067
CPU 0 Branch Prediction Accuracy: 82.9127% MPKI: 30.5285 Average ROB Occupancy at Mispredict: 13.0011
Branch type MPKI
BRANCH_DIRECT_JUMP: 1.03441
BRANCH_INDIRECT: 15.5752
BRANCH_CONDITIONAL: 10.1891
BRANCH_DIRECT_CALL: 1.8736
BRANCH_INDIRECT_CALL: 0.516041
BRANCH_RETURN: 1.34028

Instructions large pages: 0
Instructions small pages: 1010
Large page distribution for instructions: 0%

Data large pages: 0
Data small pages: 9666
Large page distribution for data: 0%

cpu0_L1I TOTAL       ACCESS:   34995736  HIT:   27171710  MISS:    7824026  iACCESS:   34995736  iHIT:   27171710  iMISS:    7824026  dACCESS:          0  dHIT:          0  dMISS:          0  itACCESS:          0  itHIT:          0  itMISS:          0  dtACCESS:          0  dtHIT:          0  dtMISS:          0
cpu0_L1I LOAD         ACCESS:   10274122  HIT:    8076926  MISS:    2197196  iACCESS:   10274122  iHIT:    8076926  iMISS:    2197196  dACCESS:          0  dHIT:          0  dMISS:          0  itACCESS:          0  itHIT:          0  itMISS:          0  dtACCESS:          0  dtHIT:          0  dtMISS:          0
cpu0_L1I RFO          ACCESS:          0  HIT:          0  MISS:          0  iACCESS:          0  iHIT:          0  iMISS:          0  dACCESS:          0  dHIT:          0  dMISS:          0  itACCESS:          0  itHIT:          0  itMISS:          0  dtACCESS:          0  dtHIT:          0  dtMISS:          0
cpu0_L1I PREFETCH     ACCESS:   24721614  HIT:   19094784  MISS:    5626830  iACCESS:   24721614  iHIT:   19094784  iMISS:    5626830  dACCESS:          0  dHIT:          0  dMISS:          0  itACCESS:          0  itHIT:          0  itMISS:          0  dtACCESS:          0  dtHIT:          0  dtMISS:          0
cpu0_L1I WRITE        ACCESS:          0  HIT:          0  MISS:          0  iACCESS:          0  iHIT:          0  iMISS:          0  dACCESS:          0  dHIT:          0  dMISS:          0  itACCESS:          0  itHIT:          0  itMISS:          0  dtACCESS:          0  dtHIT:          0  dtMISS:          0
cpu0_L1I TRANSLATION  ACCESS:          0  HIT:          0  MISS:          0  iACCESS:          0  iHIT:          0  iMISS:          0  dACCESS:          0  dHIT:          0  dMISS:          0  itACCESS:          0  itHIT:          0  itMISS:          0  dtACCESS:          0  dtHIT:          0  dtMISS:          0
cpu0_L1I PREFETCH  REQUESTED:   27266138  ISSUED:   27266138  CROSSED:          0  USEFUL:    1929023  USELESS:     624850
cpu0_L1I AVERAGE iMISS LATENCY: 12.5381 cycles
cpu0_L1I AVERAGE dMISS LATENCY: 0 cycles
cpu0_L1I AVERAGE itMISS LATENCY: 0 cycles
cpu0_L1I AVERAGE dtMISS LATENCY: 0 cycles
cpu0_L1I PAGE CROSSINGS (TLB HIT):         0 
cpu0_L1I PAGE CROSSINGS (TLB MISS):         0 
cpu0_L1I AVERAGE MISS LATENCY: 12.5381 cycles
cpu0_ITLB TOTAL       ACCESS:   29220343  HIT:   27280792  MISS:    1939551  iACCESS:   29220343  iHIT:   27280792  iMISS:    1939551  dACCESS:          0  dHIT:          0  dMISS:          0  itACCESS:          0  itHIT:          0  itMISS:          0  dtACCESS:          0  dtHIT:          0  dtMISS:          0
cpu0_ITLB LOAD         ACCESS:   29220343  HIT:   27280792  MISS:    1939551  iACCESS:   29220343  iHIT:   27280792  iMISS:    1939551  dACCESS:          0  dHIT:          0  dMISS:          0  itACCESS:          0  itHIT:          0  itMISS:          0  dtACCESS:          0  dtHIT:          0  dtMISS:          0
cpu0_ITLB RFO          ACCESS:          0  HIT:          0  MISS:          0  iACCESS:          0  iHIT:          0  iMISS:          0  dACCESS:          0  dHIT:          0  dMISS:          0  itACCESS:          0  itHIT:          0  itMISS:          0  dtACCESS:          0  dtHIT:          0  dtMISS:          0
cpu0_ITLB PREFETCH     ACCESS:          0  HIT:          0  MISS:          0  iACCESS:          0  iHIT:          0  iMISS:          0  dACCESS:          0  dHIT:          0  dMISS:          0  itACCESS:          0  itHIT:          0  itMISS:          0  dtACCESS:          0  dtHIT:          0  dtMISS:          0
cpu0_ITLB WRITE        ACCESS:          0  HIT:          0  MISS:          0  iACCESS:          0  iHIT:          0  iMISS:          0  dACCESS:          0  dHIT:          0  dMISS:          0  itACCESS:          0  itHIT:          0  itMISS:          0  dtACCESS:          0  dtHIT:          0  dtMISS:          0
cpu0_ITLB TRANSLATION  ACCESS:          0  HIT:          0  MISS:          0  iACCESS:          0  iHIT:          0  iMISS:          0  dACCESS:          0  dHIT:          0  dMISS:          0  itACCESS:          0  itHIT:          0  itMISS:          0  dtACCESS:          0  dtHIT:          0  dtMISS:          0
cpu0_ITLB PREFETCH  REQUESTED:          0  ISSUED:          0  CROSSED:          0  USEFUL:     315363  USELESS:      64613
cpu0_ITLB AVERAGE iMISS LATENCY: 2.15072 cycles
cpu0_ITLB AVERAGE dMISS LATENCY: 0 cycles
cpu0_ITLB AVERAGE itMISS LATENCY: 0 cycles
cpu0_ITLB AVERAGE dtMISS LATENCY: 0 cycles
cpu0_ITLB PAGE CROSSINGS (TLB HIT):         0 
cpu0_ITLB PAGE CROSSINGS (TLB MISS):         0 
cpu0_ITLB AVERAGE MISS LATENCY: 2.15072 cycles
cpu0_DTLB TOTAL       ACCESS:   27712422  HIT:   25609361  MISS:    2103061  iACCESS:          0  iHIT:          0  iMISS:          0  dACCESS:   27712422  dHIT:   25609361  dMISS:    2103061  itACCESS:          0  itHIT:          0  itMISS:          0  dtACCESS:          0  dtHIT:          0  dtMISS:          0
cpu0_DTLB LOAD         ACCESS:   27712422  HIT:   25609361  MISS:    2103061  iACCESS:          0  iHIT:          0  iMISS:          0  dACCESS:   27712422  dHIT:   25609361  dMISS:    2103061  itACCESS:          0  itHIT:          0  itMISS:          0  dtACCESS:          0  dtHIT:          0  dtMISS:          0
cpu0_DTLB RFO          ACCESS:          0  HIT:          0  MISS:          0  iACCESS:          0  iHIT:          0  iMISS:          0  dACCESS:          0  dHIT:          0  dMISS:          0  itACCESS:          0  itHIT:          0  itMISS:          0  dtACCESS:          0  dtHIT:          0  dtMISS:          0
cpu0_DTLB PREFETCH     ACCESS:          0  HIT:          0  MISS:          0  iACCESS:          0  iHIT:          0  iMISS:          0  dACCESS:          0  dHIT:          0  dMISS:          0  itACCESS:          0  itHIT:          0  itMISS:          0  dtACCESS:          0  dtHIT:          0  dtMISS:          0
cpu0_DTLB WRITE        ACCESS:          0  HIT:          0  MISS:          0  iACCESS:          0  iHIT:          0  iMISS:          0  dACCESS:          0  dHIT:          0  dMISS:          0  itACCESS:          0  itHIT:          0  itMISS:          0  dtACCESS:          0  dtHIT:          0  dtMISS:          0
cpu0_DTLB TRANSLATION  ACCESS:          0  HIT:          0  MISS:          0  iACCESS:          0  iHIT:          0  iMISS:          0  dACCESS:          0  dHIT:          0  dMISS:          0  itACCESS:          0  itHIT:          0  itMISS:          0  dtACCESS:          0  dtHIT:          0  dtMISS:          0
cpu0_DTLB PREFETCH  REQUESTED:          0  ISSUED:          0  CROSSED:          0  USEFUL:          0  USELESS:          0
cpu0_DTLB AVERAGE iMISS LATENCY: 0 cycles
cpu0_DTLB AVERAGE dMISS LATENCY: 16.1076 cycles
cpu0_DTLB AVERAGE itMISS LATENCY: 0 cycles
cpu0_DTLB AVERAGE dtMISS LATENCY: 0 cycles
cpu0_DTLB PAGE CROSSINGS (TLB HIT):         0 
cpu0_DTLB PAGE CROSSINGS (TLB MISS):         0 
cpu0_DTLB AVERAGE MISS LATENCY: 16.1076 cycles
cpu0_STLB TOTAL       ACCESS:    1616758  HIT:    1473294  MISS:     143464  iACCESS:     379978  iHIT:     371881  iMISS:       8097  dACCESS:    1236780  dHIT:    1101413  dMISS:     135367  itACCESS:          0  itHIT:          0  itMISS:          0  dtACCESS:          0  dtHIT:          0  dtMISS:          0
cpu0_STLB LOAD         ACCESS:    1616758  HIT:    1473294  MISS:     143464  iACCESS:     379978  iHIT:     371881  iMISS:       8097  dACCESS:    1236780  dHIT:    1101413  dMISS:     135367  itACCESS:          0  itHIT:          0  itMISS:          0  dtACCESS:          0  dtHIT:          0  dtMISS:          0
cpu0_STLB RFO          ACCESS:          0  HIT:          0  MISS:          0  iACCESS:          0  iHIT:          0  iMISS:          0  dACCESS:          0  dHIT:          0  dMISS:          0  itACCESS:          0  itHIT:          0  itMISS:          0  dtACCESS:          0  dtHIT:          0  dtMISS:          0
cpu0_STLB PREFETCH     ACCESS:          0  HIT:          0  MISS:          0  iACCESS:          0  iHIT:          0  iMISS:          0  dACCESS:          0  dHIT:          0  dMISS:          0  itACCESS:          0  itHIT:          0  itMISS:          0  dtACCESS:          0  dtHIT:          0  dtMISS:          0
cpu0_STLB WRITE        ACCESS:          0  HIT:          0  MISS:          0  iACCESS:          0  iHIT:          0  iMISS:          0  dACCESS:          0  dHIT:          0  dMISS:          0  itACCESS:          0  itHIT:          0  itMISS:          0  dtACCESS:          0  dtHIT:          0  dtMISS:          0
cpu0_STLB TRANSLATION  ACCESS:          0  HIT:          0  MISS:          0  iACCESS:          0  iHIT:          0  iMISS:          0  dACCESS:          0  dHIT:          0  dMISS:          0  itACCESS:          0  itHIT:          0  itMISS:          0  dtACCESS:          0  dtHIT:          0  dtMISS:          0
cpu0_STLB PREFETCH  REQUESTED:          0  ISSUED:          0  CROSSED:          0  USEFUL:          0  USELESS:          0
cpu0_STLB AVERAGE iMISS LATENCY: 8.52806 cycles
cpu0_STLB AVERAGE dMISS LATENCY: 167.237 cycles
cpu0_STLB AVERAGE itMISS LATENCY: 0 cycles
cpu0_STLB AVERAGE dtMISS LATENCY: 0 cycles
cpu0_STLB PAGE CROSSINGS (TLB HIT):         0 
cpu0_STLB PAGE CROSSINGS (TLB MISS):         0 
cpu0_STLB AVERAGE MISS LATENCY: 175.765 cycles
cpu0_L1D TOTAL       ACCESS:   41484176  HIT:   38027005  MISS:    3457171  iACCESS:          0  iHIT:          0  iMISS:          0  dACCESS:   41272289  dHIT:   38014235  dMISS:    3258054  itACCESS:       9597  itHIT:        917  itMISS:       8680  dtACCESS:     202290  dtHIT:      11853  dtMISS:     190437
cpu0_L1D LOAD         ACCESS:   18930490  HIT:   17445122  MISS:    1485368  iACCESS:          0  iHIT:          0  iMISS:          0  dACCESS:   18930490  dHIT:   17445122  dMISS:    1485368  itACCESS:          0  itHIT:          0  itMISS:          0  dtACCESS:          0  dtHIT:          0  dtMISS:          0
cpu0_L1D RFO          ACCESS:          0  HIT:          0  MISS:          0  iACCESS:          0  iHIT:          0  iMISS:          0  dACCESS:          0  dHIT:          0  dMISS:          0  itACCESS:          0  itHIT:          0  itMISS:          0  dtACCESS:          0  dtHIT:          0  dtMISS:          0
cpu0_L1D PREFETCH     ACCESS:   12169044  HIT:   10833470  MISS:    1335574  iACCESS:          0  iHIT:          0  iMISS:          0  dACCESS:   12169044  dHIT:   10833470  dMISS:    1335574  itACCESS:          0  itHIT:          0  itMISS:          0  dtACCESS:          0  dtHIT:          0  dtMISS:          0
cpu0_L1D WRITE        ACCESS:   10172755  HIT:    9735643  MISS:     437112  iACCESS:          0  iHIT:          0  iMISS:          0  dACCESS:   10172755  dHIT:    9735643  dMISS:     437112  itACCESS:          0  itHIT:          0  itMISS:          0  dtACCESS:          0  dtHIT:          0  dtMISS:          0
cpu0_L1D TRANSLATION  ACCESS:     211887  HIT:      12770  MISS:     199117  iACCESS:          0  iHIT:          0  iMISS:          0  dACCESS:          0  dHIT:          0  dMISS:          0  itACCESS:       9597  itHIT:        917  itMISS:       8680  dtACCESS:     202290  dtHIT:      11853  dtMISS:     190437
cpu0_L1D PREFETCH  REQUESTED:   18930490  ISSUED:   17014197  CROSSED:          0  USEFUL:     304978  USELESS:     701537
cpu0_L1D AVERAGE iMISS LATENCY: 0 cycles
cpu0_L1D AVERAGE dMISS LATENCY: 32.0075 cycles
cpu0_L1D AVERAGE itMISS LATENCY: 0.329722 cycles
cpu0_L1D AVERAGE dtMISS LATENCY: 6.19051 cycles
cpu0_L1D PAGE CROSSINGS (TLB HIT):         0 
cpu0_L1D PAGE CROSSINGS (TLB MISS):         0 
cpu0_L1D AVERAGE MISS LATENCY: 38.5277 cycles
cpu0_L2C TOTAL       ACCESS:    6973673  HIT:    4056308  MISS:    2917365  iACCESS:    3298850  iHIT:    2214197  iMISS:    1084653  dACCESS:    3485737  dHIT:    1811350  dMISS:    1674387  itACCESS:       8678  itHIT:       1819  itMISS:       6859  dtACCESS:     180408  dtHIT:      28942  dtMISS:     151466
cpu0_L2C LOAD         ACCESS:    1716014  HIT:    1040865  MISS:     675149  iACCESS:     784718  iHIT:     556351  iMISS:     228367  dACCESS:     931296  dHIT:     484514  dMISS:     446782  itACCESS:          0  itHIT:          0  itMISS:          0  dtACCESS:          0  dtHIT:          0  dtMISS:          0
cpu0_L2C RFO          ACCESS:     158405  HIT:      74634  MISS:      83771  iACCESS:          0  iHIT:          0  iMISS:          0  dACCESS:     158405  dHIT:      74634  dMISS:      83771  itACCESS:          0  itHIT:          0  itMISS:          0  dtACCESS:          0  dtHIT:          0  dtMISS:          0
cpu0_L2C PREFETCH     ACCESS:    4629974  HIT:    2630869  MISS:    1999105  iACCESS:    2514132  iHIT:    1657846  iMISS:     856286  dACCESS:    2115842  dHIT:     973023  dMISS:    1142819  itACCESS:          0  itHIT:          0  itMISS:          0  dtACCESS:          0  dtHIT:          0  dtMISS:          0
cpu0_L2C WRITE        ACCESS:     280194  HIT:     279179  MISS:       1015  iACCESS:          0  iHIT:          0  iMISS:          0  dACCESS:     280194  dHIT:     279179  dMISS:       1015  itACCESS:          0  itHIT:          0  itMISS:          0  dtACCESS:          0  dtHIT:          0  dtMISS:          0
cpu0_L2C TRANSLATION  ACCESS:     189086  HIT:      30761  MISS:     158325  iACCESS:          0  iHIT:          0  iMISS:          0  dACCESS:          0  dHIT:          0  dMISS:          0  itACCESS:       8678  itHIT:       1819  itMISS:       6859  dtACCESS:     180408  dtHIT:      28942  dtMISS:     151466
cpu0_L2C PREFETCH  REQUESTED:    1368455  ISSUED:    1368455  CROSSED:          0  USEFUL:     334486  USELESS:     230588
cpu0_L2C AVERAGE iMISS LATENCY: 23.4572 cycles
cpu0_L2C AVERAGE dMISS LATENCY: 44.5798 cycles
cpu0_L2C AVERAGE itMISS LATENCY: 0.361532 cycles
cpu0_L2C AVERAGE dtMISS LATENCY: 6.723 cycles
cpu0_L2C PAGE CROSSINGS (TLB HIT):         0 
cpu0_L2C PAGE CROSSINGS (TLB MISS):         0 
cpu0_L2C AVERAGE MISS LATENCY: 75.1215 cycles
LLC TOTAL       ACCESS:    2943794  HIT:    1898755  MISS:    1045039  iACCESS:    1031961  iHIT:     702462  iMISS:     329499  dACCESS:    1753508  dHIT:    1136223  dMISS:     617285  itACCESS:       6859  itHIT:       1645  itMISS:       5214  dtACCESS:     151466  dtHIT:      58425  dtMISS:      93041
LLC LOAD         ACCESS:     673783  HIT:     450598  MISS:     223185  iACCESS:     227296  iHIT:     158085  iMISS:      69211  dACCESS:     446487  dHIT:     292513  dMISS:     153974  itACCESS:          0  itHIT:          0  itMISS:          0  dtACCESS:          0  dtHIT:          0  dtMISS:          0
LLC RFO          ACCESS:      83763  HIT:      46806  MISS:      36957  iACCESS:          0  iHIT:          0  iMISS:          0  dACCESS:      83763  dHIT:      46806  dMISS:      36957  itACCESS:          0  itHIT:          0  itMISS:          0  dtACCESS:          0  dtHIT:          0  dtMISS:          0
LLC PREFETCH     ACCESS:    1894658  HIT:    1213543  MISS:     681115  iACCESS:     804665  iHIT:     544377  iMISS:     260288  dACCESS:    1089993  dHIT:     669166  dMISS:     420827  itACCESS:          0  itHIT:          0  itMISS:          0  dtACCESS:          0  dtHIT:          0  dtMISS:          0
LLC WRITE        ACCESS:     133265  HIT:     127738  MISS:       5527  iACCESS:          0  iHIT:          0  iMISS:          0  dACCESS:     133265  dHIT:     127738  dMISS:       5527  itACCESS:          0  itHIT:          0  itMISS:          0  dtACCESS:          0  dtHIT:          0  dtMISS:          0
LLC TRANSLATION  ACCESS:     158325  HIT:      60070  MISS:      98255  iACCESS:          0  iHIT:          0  iMISS:          0  dACCESS:          0  dHIT:          0  dMISS:          0  itACCESS:       6859  itHIT:       1645  itMISS:       5214  dtACCESS:     151466  dtHIT:      58425  dtMISS:      93041
LLC PREFETCH  REQUESTED:          0  ISSUED:          0  CROSSED:          0  USEFUL:          0  USELESS:          0
LLC AVERAGE iMISS LATENCY: 46.3089 cycles
LLC AVERAGE dMISS LATENCY: 94.449 cycles
LLC AVERAGE itMISS LATENCY: 0.880082 cycles
LLC AVERAGE dtMISS LATENCY: 15.9324 cycles
LLC PAGE CROSSINGS (TLB HIT):         0 
LLC PAGE CROSSINGS (TLB MISS):         0 
LLC AVERAGE MISS LATENCY: 157.571 cycles

PageTableWalker TOTAL       ACCESS:      73425  
PageTableWalker AVERAGE LATENCY: 5.74374 cycles
PageTableWalker TOTAL LATENCY: 421734 cycles

DRAM Statistics
Channel 0
 RQ ROW_BUFFER_HIT:     284882
  ROW_BUFFER_MISS:     754564
 AVG DBUS CONGESTED CYCLE:    3.61859
 WQ ROW_BUFFER_HIT:      19499
  ROW_BUFFER_MISS:      21511  FULL:          0

