last_page:0x200000000000000
VMEM_RES_CAP:0x100000
PAGE_SIZE:4096
LOG2_PAGE_SIZE:12
LOG2_PAGE_TABLE_SIZE:9
page_table_levels:5
WARNING: physical memory size is smaller than virtual memory size
FDiP enabled with aggresivity 16

*** ChampSim Multicore Out-of-Order Simulator ***

Warmup Instructions: 50000000
Simulation Instructions: 100000000
Number of CPUs: 1
Small page size: 4096
Large page size: 2097152

CPU 0 Bimodal branch predictor
Basic BTB sets: 1024 ways: 8 indirect buffer size: 4096 RAS size: 64
Instruction page size distrubution: 0
Loading instruction page size distribution from /home/bsc/bsc018186/scratch/itp_asplos25_AE/dump/srv358_ap.pdst
Data page size distrubution: 0
Loading data page size distribution from /home/bsc/bsc018186/scratch/itp_asplos25_AE/dump/srv358_ap.pdst
cpu0_L2C IP-based stride prefetcher
cpu0_L1D next line prefetcher
cpu0_STLB using iTP with max lru@8
cpu0_STLB using iTP with instr@0 and data@2
Init sat counter with 3 bits (max:50).
cpu0_L1I next line prefetcher
Off-chip DRAM Size: 4 GiB Channels: 1 Width: 64-bit Data Rate: 3200 MT/s
Heartbeat CPU 0 instructions: 10000000 cycles: 2500226 heartbeat IPC: 3.99964 cumulative IPC: 3.99964 (Simulation time: 0 hr 0 min 38 sec) 
Heartbeat CPU 0 instructions: 20000001 cycles: 5000268 heartbeat IPC: 3.99994 cumulative IPC: 3.99979 (Simulation time: 0 hr 1 min 18 sec) 
Heartbeat CPU 0 instructions: 30000000 cycles: 7500272 heartbeat IPC: 4 cumulative IPC: 3.99986 (Simulation time: 0 hr 1 min 59 sec) 
Heartbeat CPU 0 instructions: 40000001 cycles: 10000397 heartbeat IPC: 3.99981 cumulative IPC: 3.99985 (Simulation time: 0 hr 2 min 40 sec) 
Heartbeat CPU 0 instructions: 50000000 cycles: 12500455 heartbeat IPC: 3.99991 cumulative IPC: 3.99986 (Simulation time: 0 hr 3 min 21 sec) 
Warmup finished CPU 0 instructions: 50000000 cycles: 12500456 cumulative IPC: 3.99986 (Simulation time: 0 hr 3 min 21 sec) 

Warmup complete CPU 0 instructions: 50000000 cycles: 12500456 (Simulation time: 0 hr 3 min 21 sec) 

Heartbeat CPU 0 instructions: 60000003 cycles: 26638837 heartbeat IPC: 0.707295 cumulative IPC: 0.707295 (Simulation time: 0 hr 4 min 24 sec) 
Heartbeat CPU 0 instructions: 70000000 cycles: 40126368 heartbeat IPC: 0.741426 cumulative IPC: 0.723959 (Simulation time: 0 hr 5 min 27 sec) 
Heartbeat CPU 0 instructions: 80000000 cycles: 54136795 heartbeat IPC: 0.713755 cumulative IPC: 0.720525 (Simulation time: 0 hr 6 min 31 sec) 
Heartbeat CPU 0 instructions: 90000000 cycles: 67383052 heartbeat IPC: 0.754931 cumulative IPC: 0.728829 (Simulation time: 0 hr 7 min 33 sec) 
Heartbeat CPU 0 instructions: 100000000 cycles: 82085458 heartbeat IPC: 0.680161 cumulative IPC: 0.718546 (Simulation time: 0 hr 8 min 37 sec) 
*** Reached end of trace: /gpfs/projects/bsc18/MN4/bsc18/romol/ChampSim/traces/qualcomm_srv/srv358_ap.champsimtrace.xz
Heartbeat CPU 0 instructions: 110000004 cycles: 96492971 heartbeat IPC: 0.694083 cumulative IPC: 0.71435 (Simulation time: 0 hr 9 min 41 sec) 
Heartbeat CPU 0 instructions: 120000002 cycles: 110421516 heartbeat IPC: 0.71795 cumulative IPC: 0.714862 (Simulation time: 0 hr 10 min 44 sec) 
Heartbeat CPU 0 instructions: 130000001 cycles: 124094528 heartbeat IPC: 0.731368 cumulative IPC: 0.716884 (Simulation time: 0 hr 11 min 47 sec) 
Heartbeat CPU 0 instructions: 140000003 cycles: 138566745 heartbeat IPC: 0.69098 cumulative IPC: 0.713911 (Simulation time: 0 hr 12 min 51 sec) 
Heartbeat CPU 0 instructions: 150000002 cycles: 152744188 heartbeat IPC: 0.705346 cumulative IPC: 0.713045 (Simulation time: 0 hr 13 min 54 sec) 
Simulation finished CPU 0 instructions: 100000002 cycles: 140243733 cumulative IPC: 0.713045 (Simulation time: 0 hr 13 min 54 sec) 

Simulation complete CPU 0 instructions: 100000002 cycles: 140243733 (Simulation time: 0 hr 13 min 54 sec) 


ChampSim completed all CPUs

Saving instructions large page distribution to /home/bsc/bsc018186/scratch/itp_asplos25_AE/dump/srv358_ap.pdst...
Saving data large page distribution to /home/bsc/bsc018186/scratch/itp_asplos25_AE/dump/srv358_ap.pdst...
=== Simulation ===
CPU 0 runs /gpfs/projects/bsc18/MN4/bsc18/romol/ChampSim/traces/qualcomm_srv/srv358_ap.champsimtrace.xz

Region of Interest Statistics

CPU 0 cumulative IPC: 0.713045 instructions: 100000002 cycles: 140243733
CPU 0 Branch Prediction Accuracy: 82.9127% MPKI: 30.5285 Average ROB Occupancy at Mispredict: 12.5074
Branch type MPKI
BRANCH_DIRECT_JUMP: 1.0344
BRANCH_INDIRECT: 15.5752
BRANCH_CONDITIONAL: 10.1891
BRANCH_DIRECT_CALL: 1.87359
BRANCH_INDIRECT_CALL: 0.51604
BRANCH_RETURN: 1.34027

Instructions large pages: 0
Instructions small pages: 1010
Large page distribution for instructions: 0%

Data large pages: 0
Data small pages: 9666
Large page distribution for data: 0%

cpu0_L1I TOTAL       ACCESS:   35443995  HIT:   27063674  MISS:    8380321  iACCESS:   35443995  iHIT:   27063674  iMISS:    8380321  dACCESS:          0  dHIT:          0  dMISS:          0  itACCESS:          0  itHIT:          0  itMISS:          0  dtACCESS:          0  dtHIT:          0  dtMISS:          0
cpu0_L1I LOAD         ACCESS:   10386090  HIT:    8042124  MISS:    2343966  iACCESS:   10386090  iHIT:    8042124  iMISS:    2343966  dACCESS:          0  dHIT:          0  dMISS:          0  itACCESS:          0  itHIT:          0  itMISS:          0  dtACCESS:          0  dtHIT:          0  dtMISS:          0
cpu0_L1I RFO          ACCESS:          0  HIT:          0  MISS:          0  iACCESS:          0  iHIT:          0  iMISS:          0  dACCESS:          0  dHIT:          0  dMISS:          0  itACCESS:          0  itHIT:          0  itMISS:          0  dtACCESS:          0  dtHIT:          0  dtMISS:          0
cpu0_L1I PREFETCH     ACCESS:   25057905  HIT:   19021550  MISS:    6036355  iACCESS:   25057905  iHIT:   19021550  iMISS:    6036355  dACCESS:          0  dHIT:          0  dMISS:          0  itACCESS:          0  itHIT:          0  itMISS:          0  dtACCESS:          0  dtHIT:          0  dtMISS:          0
cpu0_L1I WRITE        ACCESS:          0  HIT:          0  MISS:          0  iACCESS:          0  iHIT:          0  iMISS:          0  dACCESS:          0  dHIT:          0  dMISS:          0  itACCESS:          0  itHIT:          0  itMISS:          0  dtACCESS:          0  dtHIT:          0  dtMISS:          0
cpu0_L1I TRANSLATION  ACCESS:          0  HIT:          0  MISS:          0  iACCESS:          0  iHIT:          0  iMISS:          0  dACCESS:          0  dHIT:          0  dMISS:          0  itACCESS:          0  itHIT:          0  itMISS:          0  dtACCESS:          0  dtHIT:          0  dtMISS:          0
cpu0_L1I PREFETCH  REQUESTED:   27373983  ISSUED:   27371895  CROSSED:          0  USEFUL:    1941785  USELESS:     624670
cpu0_L1I AVERAGE iMISS LATENCY: 13.1644 cycles
cpu0_L1I AVERAGE dMISS LATENCY: 0 cycles
cpu0_L1I AVERAGE itMISS LATENCY: 0 cycles
cpu0_L1I AVERAGE dtMISS LATENCY: 0 cycles
cpu0_L1I PAGE CROSSINGS (TLB HIT):         0 
cpu0_L1I PAGE CROSSINGS (TLB MISS):         0 
cpu0_L1I AVERAGE MISS LATENCY: 13.1644 cycles
cpu0_ITLB TOTAL       ACCESS:   29330398  HIT:   27411946  MISS:    1918452  iACCESS:   29330398  iHIT:   27411946  iMISS:    1918452  dACCESS:          0  dHIT:          0  dMISS:          0  itACCESS:          0  itHIT:          0  itMISS:          0  dtACCESS:          0  dtHIT:          0  dtMISS:          0
cpu0_ITLB LOAD         ACCESS:   29330398  HIT:   27411946  MISS:    1918452  iACCESS:   29330398  iHIT:   27411946  iMISS:    1918452  dACCESS:          0  dHIT:          0  dMISS:          0  itACCESS:          0  itHIT:          0  itMISS:          0  dtACCESS:          0  dtHIT:          0  dtMISS:          0
cpu0_ITLB RFO          ACCESS:          0  HIT:          0  MISS:          0  iACCESS:          0  iHIT:          0  iMISS:          0  dACCESS:          0  dHIT:          0  dMISS:          0  itACCESS:          0  itHIT:          0  itMISS:          0  dtACCESS:          0  dtHIT:          0  dtMISS:          0
cpu0_ITLB PREFETCH     ACCESS:          0  HIT:          0  MISS:          0  iACCESS:          0  iHIT:          0  iMISS:          0  dACCESS:          0  dHIT:          0  dMISS:          0  itACCESS:          0  itHIT:          0  itMISS:          0  dtACCESS:          0  dtHIT:          0  dtMISS:          0
cpu0_ITLB WRITE        ACCESS:          0  HIT:          0  MISS:          0  iACCESS:          0  iHIT:          0  iMISS:          0  dACCESS:          0  dHIT:          0  dMISS:          0  itACCESS:          0  itHIT:          0  itMISS:          0  dtACCESS:          0  dtHIT:          0  dtMISS:          0
cpu0_ITLB TRANSLATION  ACCESS:          0  HIT:          0  MISS:          0  iACCESS:          0  iHIT:          0  iMISS:          0  dACCESS:          0  dHIT:          0  dMISS:          0  itACCESS:          0  itHIT:          0  itMISS:          0  dtACCESS:          0  dtHIT:          0  dtMISS:          0
cpu0_ITLB PREFETCH  REQUESTED:          0  ISSUED:          0  CROSSED:          0  USEFUL:     316056  USELESS:      63906
cpu0_ITLB AVERAGE iMISS LATENCY: 1.95345 cycles
cpu0_ITLB AVERAGE dMISS LATENCY: 0 cycles
cpu0_ITLB AVERAGE itMISS LATENCY: 0 cycles
cpu0_ITLB AVERAGE dtMISS LATENCY: 0 cycles
cpu0_ITLB PAGE CROSSINGS (TLB HIT):         0 
cpu0_ITLB PAGE CROSSINGS (TLB MISS):         0 
cpu0_ITLB AVERAGE MISS LATENCY: 1.95345 cycles
cpu0_DTLB TOTAL       ACCESS:   27744920  HIT:   25661706  MISS:    2083214  iACCESS:          0  iHIT:          0  iMISS:          0  dACCESS:   27744920  dHIT:   25661706  dMISS:    2083214  itACCESS:          0  itHIT:          0  itMISS:          0  dtACCESS:          0  dtHIT:          0  dtMISS:          0
cpu0_DTLB LOAD         ACCESS:   27744920  HIT:   25661706  MISS:    2083214  iACCESS:          0  iHIT:          0  iMISS:          0  dACCESS:   27744920  dHIT:   25661706  dMISS:    2083214  itACCESS:          0  itHIT:          0  itMISS:          0  dtACCESS:          0  dtHIT:          0  dtMISS:          0
cpu0_DTLB RFO          ACCESS:          0  HIT:          0  MISS:          0  iACCESS:          0  iHIT:          0  iMISS:          0  dACCESS:          0  dHIT:          0  dMISS:          0  itACCESS:          0  itHIT:          0  itMISS:          0  dtACCESS:          0  dtHIT:          0  dtMISS:          0
cpu0_DTLB PREFETCH     ACCESS:          0  HIT:          0  MISS:          0  iACCESS:          0  iHIT:          0  iMISS:          0  dACCESS:          0  dHIT:          0  dMISS:          0  itACCESS:          0  itHIT:          0  itMISS:          0  dtACCESS:          0  dtHIT:          0  dtMISS:          0
cpu0_DTLB WRITE        ACCESS:          0  HIT:          0  MISS:          0  iACCESS:          0  iHIT:          0  iMISS:          0  dACCESS:          0  dHIT:          0  dMISS:          0  itACCESS:          0  itHIT:          0  itMISS:          0  dtACCESS:          0  dtHIT:          0  dtMISS:          0
cpu0_DTLB TRANSLATION  ACCESS:          0  HIT:          0  MISS:          0  iACCESS:          0  iHIT:          0  iMISS:          0  dACCESS:          0  dHIT:          0  dMISS:          0  itACCESS:          0  itHIT:          0  itMISS:          0  dtACCESS:          0  dtHIT:          0  dtMISS:          0
cpu0_DTLB PREFETCH  REQUESTED:          0  ISSUED:          0  CROSSED:          0  USEFUL:          0  USELESS:          0
cpu0_DTLB AVERAGE iMISS LATENCY: 0 cycles
cpu0_DTLB AVERAGE dMISS LATENCY: 11.2881 cycles
cpu0_DTLB AVERAGE itMISS LATENCY: 0 cycles
cpu0_DTLB AVERAGE dtMISS LATENCY: 0 cycles
cpu0_DTLB PAGE CROSSINGS (TLB HIT):         0 
cpu0_DTLB PAGE CROSSINGS (TLB MISS):         0 
cpu0_DTLB AVERAGE MISS LATENCY: 11.2881 cycles
cpu0_STLB TOTAL       ACCESS:    1616847  HIT:    1473409  MISS:     143438  iACCESS:     379984  iHIT:     371871  iMISS:       8113  dACCESS:    1236863  dHIT:    1101538  dMISS:     135325  itACCESS:          0  itHIT:          0  itMISS:          0  dtACCESS:          0  dtHIT:          0  dtMISS:          0
cpu0_STLB LOAD         ACCESS:    1616847  HIT:    1473409  MISS:     143438  iACCESS:     379984  iHIT:     371871  iMISS:       8113  dACCESS:    1236863  dHIT:    1101538  dMISS:     135325  itACCESS:          0  itHIT:          0  itMISS:          0  dtACCESS:          0  dtHIT:          0  dtMISS:          0
cpu0_STLB RFO          ACCESS:          0  HIT:          0  MISS:          0  iACCESS:          0  iHIT:          0  iMISS:          0  dACCESS:          0  dHIT:          0  dMISS:          0  itACCESS:          0  itHIT:          0  itMISS:          0  dtACCESS:          0  dtHIT:          0  dtMISS:          0
cpu0_STLB PREFETCH     ACCESS:          0  HIT:          0  MISS:          0  iACCESS:          0  iHIT:          0  iMISS:          0  dACCESS:          0  dHIT:          0  dMISS:          0  itACCESS:          0  itHIT:          0  itMISS:          0  dtACCESS:          0  dtHIT:          0  dtMISS:          0
cpu0_STLB WRITE        ACCESS:          0  HIT:          0  MISS:          0  iACCESS:          0  iHIT:          0  iMISS:          0  dACCESS:          0  dHIT:          0  dMISS:          0  itACCESS:          0  itHIT:          0  itMISS:          0  dtACCESS:          0  dtHIT:          0  dtMISS:          0
cpu0_STLB TRANSLATION  ACCESS:          0  HIT:          0  MISS:          0  iACCESS:          0  iHIT:          0  iMISS:          0  dACCESS:          0  dHIT:          0  dMISS:          0  itACCESS:          0  itHIT:          0  itMISS:          0  dtACCESS:          0  dtHIT:          0  dtMISS:          0
cpu0_STLB PREFETCH  REQUESTED:          0  ISSUED:          0  CROSSED:          0  USEFUL:          0  USELESS:          0
cpu0_STLB AVERAGE iMISS LATENCY: 5.59929 cycles
cpu0_STLB AVERAGE dMISS LATENCY: 95.1101 cycles
cpu0_STLB AVERAGE itMISS LATENCY: 0 cycles
cpu0_STLB AVERAGE dtMISS LATENCY: 0 cycles
cpu0_STLB PAGE CROSSINGS (TLB HIT):         0 
cpu0_STLB PAGE CROSSINGS (TLB MISS):         0 
cpu0_STLB AVERAGE MISS LATENCY: 100.71 cycles
cpu0_L1D TOTAL       ACCESS:   41509058  HIT:   38072430  MISS:    3436628  iACCESS:          0  iHIT:          0  iMISS:          0  dACCESS:   41297843  dHIT:   38059556  dMISS:    3238287  itACCESS:       9615  itHIT:        960  itMISS:       8655  dtACCESS:     201600  dtHIT:      11914  dtMISS:     189686
cpu0_L1D LOAD         ACCESS:   18946661  HIT:   17470215  MISS:    1476446  iACCESS:          0  iHIT:          0  iMISS:          0  dACCESS:   18946661  dHIT:   17470215  dMISS:    1476446  itACCESS:          0  itHIT:          0  itMISS:          0  dtACCESS:          0  dtHIT:          0  dtMISS:          0
cpu0_L1D RFO          ACCESS:          0  HIT:          0  MISS:          0  iACCESS:          0  iHIT:          0  iMISS:          0  dACCESS:          0  dHIT:          0  dMISS:          0  itACCESS:          0  itHIT:          0  itMISS:          0  dtACCESS:          0  dtHIT:          0  dtMISS:          0
cpu0_L1D PREFETCH     ACCESS:   12194583  HIT:   10854358  MISS:    1340225  iACCESS:          0  iHIT:          0  iMISS:          0  dACCESS:   12194583  dHIT:   10854358  dMISS:    1340225  itACCESS:          0  itHIT:          0  itMISS:          0  dtACCESS:          0  dtHIT:          0  dtMISS:          0
cpu0_L1D WRITE        ACCESS:   10156599  HIT:    9734983  MISS:     421616  iACCESS:          0  iHIT:          0  iMISS:          0  dACCESS:   10156599  dHIT:    9734983  dMISS:     421616  itACCESS:          0  itHIT:          0  itMISS:          0  dtACCESS:          0  dtHIT:          0  dtMISS:          0
cpu0_L1D TRANSLATION  ACCESS:     211215  HIT:      12874  MISS:     198341  iACCESS:          0  iHIT:          0  iMISS:          0  dACCESS:          0  dHIT:          0  dMISS:          0  itACCESS:       9615  itHIT:        960  itMISS:       8655  dtACCESS:     201600  dtHIT:      11914  dtMISS:     189686
cpu0_L1D PREFETCH  REQUESTED:   18946661  ISSUED:   17064532  CROSSED:          0  USEFUL:     307251  USELESS:     701245
cpu0_L1D AVERAGE iMISS LATENCY: 0 cycles
cpu0_L1D AVERAGE dMISS LATENCY: 33.1625 cycles
cpu0_L1D AVERAGE itMISS LATENCY: 0.209475 cycles
cpu0_L1D AVERAGE dtMISS LATENCY: 3.21378 cycles
cpu0_L1D PAGE CROSSINGS (TLB HIT):         0 
cpu0_L1D PAGE CROSSINGS (TLB MISS):         0 
cpu0_L1D AVERAGE MISS LATENCY: 36.5858 cycles
cpu0_L2C TOTAL       ACCESS:    6984665  HIT:    1677215  MISS:    5307450  iACCESS:    3300180  iHIT:     870868  iMISS:    2429312  dACCESS:    3495555  dHIT:     707342  dMISS:    2788213  itACCESS:       8655  itHIT:       3997  itMISS:       4658  dtACCESS:     180275  dtHIT:      95008  dtMISS:      85267
cpu0_L2C LOAD         ACCESS:    1700165  HIT:     284968  MISS:    1415197  iACCESS:     771688  iHIT:     140005  iMISS:     631683  dACCESS:     928477  dHIT:     144963  dMISS:     783514  itACCESS:          0  itHIT:          0  itMISS:          0  dtACCESS:          0  dtHIT:          0  dtMISS:          0
cpu0_L2C RFO          ACCESS:     158798  HIT:      53162  MISS:     105636  iACCESS:          0  iHIT:          0  iMISS:          0  dACCESS:     158798  dHIT:      53162  dMISS:     105636  itACCESS:          0  itHIT:          0  itMISS:          0  dtACCESS:          0  dtHIT:          0  dtMISS:          0
cpu0_L2C PREFETCH     ACCESS:    4657554  HIT:    1105176  MISS:    3552378  iACCESS:    2528492  iHIT:     730863  iMISS:    1797629  dACCESS:    2129062  dHIT:     374313  dMISS:    1754749  itACCESS:          0  itHIT:          0  itMISS:          0  dtACCESS:          0  dtHIT:          0  dtMISS:          0
cpu0_L2C WRITE        ACCESS:     279218  HIT:     134904  MISS:     144314  iACCESS:          0  iHIT:          0  iMISS:          0  dACCESS:     279218  dHIT:     134904  dMISS:     144314  itACCESS:          0  itHIT:          0  itMISS:          0  dtACCESS:          0  dtHIT:          0  dtMISS:          0
cpu0_L2C TRANSLATION  ACCESS:     188930  HIT:      99005  MISS:      89925  iACCESS:          0  iHIT:          0  iMISS:          0  dACCESS:          0  dHIT:          0  dMISS:          0  itACCESS:       8655  itHIT:       3997  itMISS:       4658  dtACCESS:     180275  dtHIT:      95008  dtMISS:      85267
cpu0_L2C PREFETCH  REQUESTED:    1382733  ISSUED:    1382733  CROSSED:          0  USEFUL:     414459  USELESS:     370853
cpu0_L2C AVERAGE iMISS LATENCY: 15.0478 cycles
cpu0_L2C AVERAGE dMISS LATENCY: 24.8078 cycles
cpu0_L2C AVERAGE itMISS LATENCY: 0.120049 cycles
cpu0_L2C AVERAGE dtMISS LATENCY: 1.75736 cycles
cpu0_L2C PAGE CROSSINGS (TLB HIT):         0 
cpu0_L2C PAGE CROSSINGS (TLB MISS):         0 
cpu0_L2C AVERAGE MISS LATENCY: 41.733 cycles
LLC TOTAL       ACCESS:    5193890  HIT:    4396815  MISS:     797075  iACCESS:    2377655  iHIT:    2143214  iMISS:     234441  dACCESS:    2726310  dHIT:    2210145  dMISS:     516165  itACCESS:       4658  itHIT:       1553  itMISS:       3105  dtACCESS:      85267  dtHIT:      41903  dtMISS:      43364
LLC LOAD         ACCESS:    1413459  HIT:    1238695  MISS:     174764  iACCESS:     630441  iHIT:     581379  iMISS:      49062  dACCESS:     783018  dHIT:     657316  dMISS:     125702  itACCESS:          0  itHIT:          0  itMISS:          0  dtACCESS:          0  dtHIT:          0  dtMISS:          0
LLC RFO          ACCESS:     105632  HIT:      74169  MISS:      31463  iACCESS:          0  iHIT:          0  iMISS:          0  dACCESS:     105632  dHIT:      74169  dMISS:      31463  itACCESS:          0  itHIT:          0  itMISS:          0  dtACCESS:          0  dtHIT:          0  dtMISS:          0
LLC PREFETCH     ACCESS:    3449566  HIT:    2914092  MISS:     535474  iACCESS:    1747214  iHIT:    1561835  iMISS:     185379  dACCESS:    1702352  dHIT:    1352257  dMISS:     350095  itACCESS:          0  itHIT:          0  itMISS:          0  dtACCESS:          0  dtHIT:          0  dtMISS:          0
LLC WRITE        ACCESS:     135308  HIT:     126403  MISS:       8905  iACCESS:          0  iHIT:          0  iMISS:          0  dACCESS:     135308  dHIT:     126403  dMISS:       8905  itACCESS:          0  itHIT:          0  itMISS:          0  dtACCESS:          0  dtHIT:          0  dtMISS:          0
LLC TRANSLATION  ACCESS:      89925  HIT:      43456  MISS:      46469  iACCESS:          0  iHIT:          0  iMISS:          0  dACCESS:          0  dHIT:          0  dMISS:          0  itACCESS:       4658  itHIT:       1553  itMISS:       3105  dtACCESS:      85267  dtHIT:      41903  dtMISS:      43364
LLC PREFETCH  REQUESTED:          0  ISSUED:          0  CROSSED:          0  USEFUL:          0  USELESS:          0
LLC AVERAGE iMISS LATENCY: 42.6637 cycles
LLC AVERAGE dMISS LATENCY: 102.404 cycles
LLC AVERAGE itMISS LATENCY: 0.684792 cycles
LLC AVERAGE dtMISS LATENCY: 9.61569 cycles
LLC PAGE CROSSINGS (TLB HIT):         0 
LLC PAGE CROSSINGS (TLB MISS):         0 
LLC AVERAGE MISS LATENCY: 155.368 cycles

PageTableWalker TOTAL       ACCESS:      73465  
PageTableWalker AVERAGE LATENCY: 5.15446 cycles
PageTableWalker TOTAL LATENCY: 378672 cycles

DRAM Statistics
Channel 0
 RQ ROW_BUFFER_HIT:     225307
  ROW_BUFFER_MISS:     562805
 AVG DBUS CONGESTED CYCLE:      3.637
 WQ ROW_BUFFER_HIT:      14382
  ROW_BUFFER_MISS:      19968  FULL:          0

