last_page:0x200000000000000
VMEM_RES_CAP:0x100000
PAGE_SIZE:4096
LOG2_PAGE_SIZE:12
LOG2_PAGE_TABLE_SIZE:9
page_table_levels:5
WARNING: physical memory size is smaller than virtual memory size
FDiP enabled with aggresivity 16

*** ChampSim Multicore Out-of-Order Simulator ***

Warmup Instructions: 50000000
Simulation Instructions: 100000000
Number of CPUs: 1
Small page size: 4096
Large page size: 2097152

CPU 0 Bimodal branch predictor
Basic BTB sets: 1024 ways: 8 indirect buffer size: 4096 RAS size: 64
Instruction page size distrubution: 0
Loading instruction page size distribution from /home/bsc/bsc018186/scratch/itp_asplos25_AE/dump/srv393_ap.pdst
Data page size distrubution: 0
Loading data page size distribution from /home/bsc/bsc018186/scratch/itp_asplos25_AE/dump/srv393_ap.pdst
cpu0_L2C IP-based stride prefetcher
cpu0_L2C is using PTP replacement policy:
	TLB_STRESS_THRESHOLD:0
	PTE_EVICTION_RATIO:0
cpu0_L1D next line prefetcher
CHiRPing...
cpu0_L1I next line prefetcher
Off-chip DRAM Size: 4 GiB Channels: 1 Width: 64-bit Data Rate: 3200 MT/s
Heartbeat CPU 0 instructions: 10000002 cycles: 2500180 heartbeat IPC: 3.99972 cumulative IPC: 3.99972 (Simulation time: 0 hr 0 min 38 sec) 
Heartbeat CPU 0 instructions: 20000000 cycles: 5000365 heartbeat IPC: 3.99971 cumulative IPC: 3.99971 (Simulation time: 0 hr 1 min 18 sec) 
Heartbeat CPU 0 instructions: 30000002 cycles: 7500404 heartbeat IPC: 3.99994 cumulative IPC: 3.99979 (Simulation time: 0 hr 1 min 59 sec) 
Heartbeat CPU 0 instructions: 40000000 cycles: 10000430 heartbeat IPC: 3.99996 cumulative IPC: 3.99983 (Simulation time: 0 hr 2 min 41 sec) 
Heartbeat CPU 0 instructions: 50000000 cycles: 12500600 heartbeat IPC: 3.99973 cumulative IPC: 3.99981 (Simulation time: 0 hr 3 min 22 sec) 
Warmup finished CPU 0 instructions: 50000000 cycles: 12500601 cumulative IPC: 3.99981 (Simulation time: 0 hr 3 min 22 sec) 

Warmup complete CPU 0 instructions: 50000000 cycles: 12500601 (Simulation time: 0 hr 3 min 22 sec) 

Heartbeat CPU 0 instructions: 60000003 cycles: 27563628 heartbeat IPC: 0.663878 cumulative IPC: 0.663878 (Simulation time: 0 hr 4 min 28 sec) 
Heartbeat CPU 0 instructions: 70000000 cycles: 43707044 heartbeat IPC: 0.619448 cumulative IPC: 0.640894 (Simulation time: 0 hr 5 min 34 sec) 
Heartbeat CPU 0 instructions: 80000000 cycles: 59124338 heartbeat IPC: 0.648623 cumulative IPC: 0.64345 (Simulation time: 0 hr 6 min 39 sec) 
Heartbeat CPU 0 instructions: 90000000 cycles: 75911043 heartbeat IPC: 0.59571 cumulative IPC: 0.630811 (Simulation time: 0 hr 7 min 46 sec) 
Heartbeat CPU 0 instructions: 100000000 cycles: 91305576 heartbeat IPC: 0.649582 cumulative IPC: 0.634478 (Simulation time: 0 hr 8 min 51 sec) 
*** Reached end of trace: /gpfs/projects/bsc18/MN4/bsc18/romol/ChampSim/traces/qualcomm_srv/srv393_ap.champsimtrace.xz
Heartbeat CPU 0 instructions: 110000002 cycles: 106833871 heartbeat IPC: 0.643986 cumulative IPC: 0.636043 (Simulation time: 0 hr 9 min 56 sec) 
Heartbeat CPU 0 instructions: 120000002 cycles: 122932546 heartbeat IPC: 0.62117 cumulative IPC: 0.633875 (Simulation time: 0 hr 11 min 3 sec) 
Heartbeat CPU 0 instructions: 130000000 cycles: 137761814 heartbeat IPC: 0.674342 cumulative IPC: 0.638666 (Simulation time: 0 hr 12 min 8 sec) 
Heartbeat CPU 0 instructions: 140000002 cycles: 152546633 heartbeat IPC: 0.67637 cumulative IPC: 0.642646 (Simulation time: 0 hr 13 min 12 sec) 
Heartbeat CPU 0 instructions: 150000001 cycles: 167519387 heartbeat IPC: 0.66788 cumulative IPC: 0.645084 (Simulation time: 0 hr 14 min 16 sec) 
Simulation finished CPU 0 instructions: 100000001 cycles: 155018787 cumulative IPC: 0.645084 (Simulation time: 0 hr 14 min 16 sec) 

Simulation complete CPU 0 instructions: 100000001 cycles: 155018787 (Simulation time: 0 hr 14 min 16 sec) 


ChampSim completed all CPUs

Saving instructions large page distribution to /home/bsc/bsc018186/scratch/itp_asplos25_AE/dump/srv393_ap.pdst...
Saving data large page distribution to /home/bsc/bsc018186/scratch/itp_asplos25_AE/dump/srv393_ap.pdst...
=== Simulation ===
CPU 0 runs /gpfs/projects/bsc18/MN4/bsc18/romol/ChampSim/traces/qualcomm_srv/srv393_ap.champsimtrace.xz

Region of Interest Statistics

CPU 0 cumulative IPC: 0.645084 instructions: 100000001 cycles: 155018787
CPU 0 Branch Prediction Accuracy: 83.2998% MPKI: 29.8571 Average ROB Occupancy at Mispredict: 12.6023
Branch type MPKI
BRANCH_DIRECT_JUMP: 1.03687
BRANCH_INDIRECT: 15.3648
BRANCH_CONDITIONAL: 9.727
BRANCH_DIRECT_CALL: 1.86547
BRANCH_INDIRECT_CALL: 0.50973
BRANCH_RETURN: 1.35325

Instructions large pages: 0
Instructions small pages: 1028
Large page distribution for instructions: 0%

Data large pages: 0
Data small pages: 10369
Large page distribution for data: 0%

cpu0_L1I TOTAL       ACCESS:   34661552  HIT:   26932722  MISS:    7728830  iACCESS:   34661552  iHIT:   26932722  iMISS:    7728830  dACCESS:          0  dHIT:          0  dMISS:          0  itACCESS:          0  itHIT:          0  itMISS:          0  dtACCESS:          0  dtHIT:          0  dtMISS:          0
cpu0_L1I LOAD         ACCESS:   10182762  HIT:    8009394  MISS:    2173368  iACCESS:   10182762  iHIT:    8009394  iMISS:    2173368  dACCESS:          0  dHIT:          0  dMISS:          0  itACCESS:          0  itHIT:          0  itMISS:          0  dtACCESS:          0  dtHIT:          0  dtMISS:          0
cpu0_L1I RFO          ACCESS:          0  HIT:          0  MISS:          0  iACCESS:          0  iHIT:          0  iMISS:          0  dACCESS:          0  dHIT:          0  dMISS:          0  itACCESS:          0  itHIT:          0  itMISS:          0  dtACCESS:          0  dtHIT:          0  dtMISS:          0
cpu0_L1I PREFETCH     ACCESS:   24478790  HIT:   18923328  MISS:    5555462  iACCESS:   24478790  iHIT:   18923328  iMISS:    5555462  dACCESS:          0  dHIT:          0  dMISS:          0  itACCESS:          0  itHIT:          0  itMISS:          0  dtACCESS:          0  dtHIT:          0  dtMISS:          0
cpu0_L1I WRITE        ACCESS:          0  HIT:          0  MISS:          0  iACCESS:          0  iHIT:          0  iMISS:          0  dACCESS:          0  dHIT:          0  dMISS:          0  itACCESS:          0  itHIT:          0  itMISS:          0  dtACCESS:          0  dtHIT:          0  dtMISS:          0
cpu0_L1I TRANSLATION  ACCESS:          0  HIT:          0  MISS:          0  iACCESS:          0  iHIT:          0  iMISS:          0  dACCESS:          0  dHIT:          0  dMISS:          0  itACCESS:          0  itHIT:          0  itMISS:          0  dtACCESS:          0  dtHIT:          0  dtMISS:          0
cpu0_L1I PREFETCH  REQUESTED:   27064407  ISSUED:   27064407  CROSSED:          0  USEFUL:    1878933  USELESS:     623862
cpu0_L1I AVERAGE iMISS LATENCY: 13.187 cycles
cpu0_L1I AVERAGE dMISS LATENCY: 0 cycles
cpu0_L1I AVERAGE itMISS LATENCY: 0 cycles
cpu0_L1I AVERAGE dtMISS LATENCY: 0 cycles
cpu0_L1I PAGE CROSSINGS (TLB HIT):         0 
cpu0_L1I PAGE CROSSINGS (TLB MISS):         0 
cpu0_L1I AVERAGE MISS LATENCY: 13.187 cycles
cpu0_ITLB TOTAL       ACCESS:   28949455  HIT:   26979267  MISS:    1970188  iACCESS:   28949455  iHIT:   26979267  iMISS:    1970188  dACCESS:          0  dHIT:          0  dMISS:          0  itACCESS:          0  itHIT:          0  itMISS:          0  dtACCESS:          0  dtHIT:          0  dtMISS:          0
cpu0_ITLB LOAD         ACCESS:   28949455  HIT:   26979267  MISS:    1970188  iACCESS:   28949455  iHIT:   26979267  iMISS:    1970188  dACCESS:          0  dHIT:          0  dMISS:          0  itACCESS:          0  itHIT:          0  itMISS:          0  dtACCESS:          0  dtHIT:          0  dtMISS:          0
cpu0_ITLB RFO          ACCESS:          0  HIT:          0  MISS:          0  iACCESS:          0  iHIT:          0  iMISS:          0  dACCESS:          0  dHIT:          0  dMISS:          0  itACCESS:          0  itHIT:          0  itMISS:          0  dtACCESS:          0  dtHIT:          0  dtMISS:          0
cpu0_ITLB PREFETCH     ACCESS:          0  HIT:          0  MISS:          0  iACCESS:          0  iHIT:          0  iMISS:          0  dACCESS:          0  dHIT:          0  dMISS:          0  itACCESS:          0  itHIT:          0  itMISS:          0  dtACCESS:          0  dtHIT:          0  dtMISS:          0
cpu0_ITLB WRITE        ACCESS:          0  HIT:          0  MISS:          0  iACCESS:          0  iHIT:          0  iMISS:          0  dACCESS:          0  dHIT:          0  dMISS:          0  itACCESS:          0  itHIT:          0  itMISS:          0  dtACCESS:          0  dtHIT:          0  dtMISS:          0
cpu0_ITLB TRANSLATION  ACCESS:          0  HIT:          0  MISS:          0  iACCESS:          0  iHIT:          0  iMISS:          0  dACCESS:          0  dHIT:          0  dMISS:          0  itACCESS:          0  itHIT:          0  itMISS:          0  dtACCESS:          0  dtHIT:          0  dtMISS:          0
cpu0_ITLB PREFETCH  REQUESTED:          0  ISSUED:          0  CROSSED:          0  USEFUL:     319257  USELESS:      66962
cpu0_ITLB AVERAGE iMISS LATENCY: 5.20673 cycles
cpu0_ITLB AVERAGE dMISS LATENCY: 0 cycles
cpu0_ITLB AVERAGE itMISS LATENCY: 0 cycles
cpu0_ITLB AVERAGE dtMISS LATENCY: 0 cycles
cpu0_ITLB PAGE CROSSINGS (TLB HIT):         0 
cpu0_ITLB PAGE CROSSINGS (TLB MISS):         0 
cpu0_ITLB AVERAGE MISS LATENCY: 5.20673 cycles
cpu0_DTLB TOTAL       ACCESS:   27681860  HIT:   25852491  MISS:    1829369  iACCESS:          0  iHIT:          0  iMISS:          0  dACCESS:   27681860  dHIT:   25852491  dMISS:    1829369  itACCESS:          0  itHIT:          0  itMISS:          0  dtACCESS:          0  dtHIT:          0  dtMISS:          0
cpu0_DTLB LOAD         ACCESS:   27681860  HIT:   25852491  MISS:    1829369  iACCESS:          0  iHIT:          0  iMISS:          0  dACCESS:   27681860  dHIT:   25852491  dMISS:    1829369  itACCESS:          0  itHIT:          0  itMISS:          0  dtACCESS:          0  dtHIT:          0  dtMISS:          0
cpu0_DTLB RFO          ACCESS:          0  HIT:          0  MISS:          0  iACCESS:          0  iHIT:          0  iMISS:          0  dACCESS:          0  dHIT:          0  dMISS:          0  itACCESS:          0  itHIT:          0  itMISS:          0  dtACCESS:          0  dtHIT:          0  dtMISS:          0
cpu0_DTLB PREFETCH     ACCESS:          0  HIT:          0  MISS:          0  iACCESS:          0  iHIT:          0  iMISS:          0  dACCESS:          0  dHIT:          0  dMISS:          0  itACCESS:          0  itHIT:          0  itMISS:          0  dtACCESS:          0  dtHIT:          0  dtMISS:          0
cpu0_DTLB WRITE        ACCESS:          0  HIT:          0  MISS:          0  iACCESS:          0  iHIT:          0  iMISS:          0  dACCESS:          0  dHIT:          0  dMISS:          0  itACCESS:          0  itHIT:          0  itMISS:          0  dtACCESS:          0  dtHIT:          0  dtMISS:          0
cpu0_DTLB TRANSLATION  ACCESS:          0  HIT:          0  MISS:          0  iACCESS:          0  iHIT:          0  iMISS:          0  dACCESS:          0  dHIT:          0  dMISS:          0  itACCESS:          0  itHIT:          0  itMISS:          0  dtACCESS:          0  dtHIT:          0  dtMISS:          0
cpu0_DTLB PREFETCH  REQUESTED:          0  ISSUED:          0  CROSSED:          0  USEFUL:          0  USELESS:          0
cpu0_DTLB AVERAGE iMISS LATENCY: 0 cycles
cpu0_DTLB AVERAGE dMISS LATENCY: 16.6242 cycles
cpu0_DTLB AVERAGE itMISS LATENCY: 0 cycles
cpu0_DTLB AVERAGE dtMISS LATENCY: 0 cycles
cpu0_DTLB PAGE CROSSINGS (TLB HIT):         0 
cpu0_DTLB PAGE CROSSINGS (TLB MISS):         0 
cpu0_DTLB AVERAGE MISS LATENCY: 16.6242 cycles
cpu0_STLB TOTAL       ACCESS:    1498755  HIT:    1320165  MISS:     178590  iACCESS:     386212  iHIT:     321673  iMISS:      64539  dACCESS:    1112543  dHIT:     998492  dMISS:     114051  itACCESS:          0  itHIT:          0  itMISS:          0  dtACCESS:          0  dtHIT:          0  dtMISS:          0
cpu0_STLB LOAD         ACCESS:    1498755  HIT:    1320165  MISS:     178590  iACCESS:     386212  iHIT:     321673  iMISS:      64539  dACCESS:    1112543  dHIT:     998492  dMISS:     114051  itACCESS:          0  itHIT:          0  itMISS:          0  dtACCESS:          0  dtHIT:          0  dtMISS:          0
cpu0_STLB RFO          ACCESS:          0  HIT:          0  MISS:          0  iACCESS:          0  iHIT:          0  iMISS:          0  dACCESS:          0  dHIT:          0  dMISS:          0  itACCESS:          0  itHIT:          0  itMISS:          0  dtACCESS:          0  dtHIT:          0  dtMISS:          0
cpu0_STLB PREFETCH     ACCESS:          0  HIT:          0  MISS:          0  iACCESS:          0  iHIT:          0  iMISS:          0  dACCESS:          0  dHIT:          0  dMISS:          0  itACCESS:          0  itHIT:          0  itMISS:          0  dtACCESS:          0  dtHIT:          0  dtMISS:          0
cpu0_STLB WRITE        ACCESS:          0  HIT:          0  MISS:          0  iACCESS:          0  iHIT:          0  iMISS:          0  dACCESS:          0  dHIT:          0  dMISS:          0  itACCESS:          0  itHIT:          0  itMISS:          0  dtACCESS:          0  dtHIT:          0  dtMISS:          0
cpu0_STLB TRANSLATION  ACCESS:          0  HIT:          0  MISS:          0  iACCESS:          0  iHIT:          0  iMISS:          0  dACCESS:          0  dHIT:          0  dMISS:          0  itACCESS:          0  itHIT:          0  itMISS:          0  dtACCESS:          0  dtHIT:          0  dtMISS:          0
cpu0_STLB PREFETCH  REQUESTED:          0  ISSUED:          0  CROSSED:          0  USEFUL:          0  USELESS:          0
cpu0_STLB AVERAGE iMISS LATENCY: 40.3164 cycles
cpu0_STLB AVERAGE dMISS LATENCY: 120.52 cycles
cpu0_STLB AVERAGE itMISS LATENCY: 0 cycles
cpu0_STLB AVERAGE dtMISS LATENCY: 0 cycles
cpu0_STLB PAGE CROSSINGS (TLB HIT):         0 
cpu0_STLB PAGE CROSSINGS (TLB MISS):         0 
cpu0_STLB AVERAGE MISS LATENCY: 160.836 cycles
cpu0_L1D TOTAL       ACCESS:   41410510  HIT:   37985442  MISS:    3425068  iACCESS:          0  iHIT:          0  iMISS:          0  dACCESS:   41169192  dHIT:   37963913  dMISS:    3205279  itACCESS:      70177  itHIT:      10112  itMISS:      60065  dtACCESS:     171141  dtHIT:      11417  dtMISS:     159724
cpu0_L1D LOAD         ACCESS:   18916946  HIT:   17458601  MISS:    1458345  iACCESS:          0  iHIT:          0  iMISS:          0  dACCESS:   18916946  dHIT:   17458601  dMISS:    1458345  itACCESS:          0  itHIT:          0  itMISS:          0  dtACCESS:          0  dtHIT:          0  dtMISS:          0
cpu0_L1D RFO          ACCESS:          0  HIT:          0  MISS:          0  iACCESS:          0  iHIT:          0  iMISS:          0  dACCESS:          0  dHIT:          0  dMISS:          0  itACCESS:          0  itHIT:          0  itMISS:          0  dtACCESS:          0  dtHIT:          0  dtMISS:          0
cpu0_L1D PREFETCH     ACCESS:   12071972  HIT:   10753721  MISS:    1318251  iACCESS:          0  iHIT:          0  iMISS:          0  dACCESS:   12071972  dHIT:   10753721  dMISS:    1318251  itACCESS:          0  itHIT:          0  itMISS:          0  dtACCESS:          0  dtHIT:          0  dtMISS:          0
cpu0_L1D WRITE        ACCESS:   10180274  HIT:    9751591  MISS:     428683  iACCESS:          0  iHIT:          0  iMISS:          0  dACCESS:   10180274  dHIT:    9751591  dMISS:     428683  itACCESS:          0  itHIT:          0  itMISS:          0  dtACCESS:          0  dtHIT:          0  dtMISS:          0
cpu0_L1D TRANSLATION  ACCESS:     241318  HIT:      21529  MISS:     219789  iACCESS:          0  iHIT:          0  iMISS:          0  dACCESS:          0  dHIT:          0  dMISS:          0  itACCESS:      70177  itHIT:      10112  itMISS:      60065  dtACCESS:     171141  dtHIT:      11417  dtMISS:     159724
cpu0_L1D PREFETCH  REQUESTED:   18916946  ISSUED:   16868277  CROSSED:          0  USEFUL:     304103  USELESS:     695917
cpu0_L1D AVERAGE iMISS LATENCY: 0 cycles
cpu0_L1D AVERAGE dMISS LATENCY: 34.133 cycles
cpu0_L1D AVERAGE itMISS LATENCY: 1.9389 cycles
cpu0_L1D AVERAGE dtMISS LATENCY: 5.52423 cycles
cpu0_L1D PAGE CROSSINGS (TLB HIT):         0 
cpu0_L1D PAGE CROSSINGS (TLB MISS):         0 
cpu0_L1D AVERAGE MISS LATENCY: 41.5961 cycles
cpu0_L2C TOTAL       ACCESS:    6891344  HIT:    3945862  MISS:    2945482  iACCESS:    3257249  iHIT:    2163590  iMISS:    1093659  dACCESS:    3423412  dHIT:    1748582  dMISS:    1674830  itACCESS:      60065  itHIT:      11739  itMISS:      48326  dtACCESS:     150618  dtHIT:      21951  dtMISS:     128667
cpu0_L2C LOAD         ACCESS:    1711026  HIT:    1006437  MISS:     704589  iACCESS:     788627  iHIT:     544210  iMISS:     244417  dACCESS:     922399  dHIT:     462227  dMISS:     460172  itACCESS:          0  itHIT:          0  itMISS:          0  dtACCESS:          0  dtHIT:          0  dtMISS:          0
cpu0_L2C RFO          ACCESS:     155711  HIT:      69819  MISS:      85892  iACCESS:          0  iHIT:          0  iMISS:          0  dACCESS:     155711  dHIT:      69819  dMISS:      85892  itACCESS:          0  itHIT:          0  itMISS:          0  dtACCESS:          0  dtHIT:          0  dtMISS:          0
cpu0_L2C PREFETCH     ACCESS:    4532012  HIT:    2555549  MISS:    1976463  iACCESS:    2468622  iHIT:    1619380  iMISS:     849242  dACCESS:    2063390  dHIT:     936169  dMISS:    1127221  itACCESS:          0  itHIT:          0  itMISS:          0  dtACCESS:          0  dtHIT:          0  dtMISS:          0
cpu0_L2C WRITE        ACCESS:     281912  HIT:     280367  MISS:       1545  iACCESS:          0  iHIT:          0  iMISS:          0  dACCESS:     281912  dHIT:     280367  dMISS:       1545  itACCESS:          0  itHIT:          0  itMISS:          0  dtACCESS:          0  dtHIT:          0  dtMISS:          0
cpu0_L2C TRANSLATION  ACCESS:     210683  HIT:      33690  MISS:     176993  iACCESS:          0  iHIT:          0  iMISS:          0  dACCESS:          0  dHIT:          0  dMISS:          0  itACCESS:      60065  itHIT:      11739  itMISS:      48326  dtACCESS:     150618  dtHIT:      21951  dtMISS:     128667
cpu0_L2C PREFETCH  REQUESTED:    1307223  ISSUED:    1307223  CROSSED:          0  USEFUL:     308717  USELESS:     228216
cpu0_L2C AVERAGE iMISS LATENCY: 24.7111 cycles
cpu0_L2C AVERAGE dMISS LATENCY: 46.5179 cycles
cpu0_L2C AVERAGE itMISS LATENCY: 2.05416 cycles
cpu0_L2C AVERAGE dtMISS LATENCY: 5.91598 cycles
cpu0_L2C PAGE CROSSINGS (TLB HIT):         0 
cpu0_L2C PAGE CROSSINGS (TLB MISS):         0 
cpu0_L2C AVERAGE MISS LATENCY: 79.1991 cycles
LLC TOTAL       ACCESS:    2975539  HIT:    1844303  MISS:    1131236  iACCESS:    1040430  iHIT:     681280  iMISS:     359150  dACCESS:    1758116  dHIT:    1098609  dMISS:     659507  itACCESS:      48326  itHIT:      18422  itMISS:      29904  dtACCESS:     128667  dtHIT:      45992  dtMISS:      82675
LLC LOAD         ACCESS:     703418  HIT:     450356  MISS:     253062  iACCESS:     243415  iHIT:     159853  iMISS:      83562  dACCESS:     460003  dHIT:     290503  dMISS:     169500  itACCESS:          0  itHIT:          0  itMISS:          0  dtACCESS:          0  dtHIT:          0  dtMISS:          0
LLC RFO          ACCESS:      85886  HIT:      47018  MISS:      38868  iACCESS:          0  iHIT:          0  iMISS:          0  dACCESS:      85886  dHIT:      47018  dMISS:      38868  itACCESS:          0  itHIT:          0  itMISS:          0  dtACCESS:          0  dtHIT:          0  dtMISS:          0
LLC PREFETCH     ACCESS:    1868478  HIT:    1148042  MISS:     720436  iACCESS:     797015  iHIT:     521427  iMISS:     275588  dACCESS:    1071463  dHIT:     626615  dMISS:     444848  itACCESS:          0  itHIT:          0  itMISS:          0  dtACCESS:          0  dtHIT:          0  dtMISS:          0
LLC WRITE        ACCESS:     140764  HIT:     134473  MISS:       6291  iACCESS:          0  iHIT:          0  iMISS:          0  dACCESS:     140764  dHIT:     134473  dMISS:       6291  itACCESS:          0  itHIT:          0  itMISS:          0  dtACCESS:          0  dtHIT:          0  dtMISS:          0
LLC TRANSLATION  ACCESS:     176993  HIT:      64414  MISS:     112579  iACCESS:          0  iHIT:          0  iMISS:          0  dACCESS:          0  dHIT:          0  dMISS:          0  itACCESS:      48326  itHIT:      18422  itMISS:      29904  dtACCESS:     128667  dtHIT:      45992  dtMISS:      82675
LLC PREFETCH  REQUESTED:          0  ISSUED:          0  CROSSED:          0  USEFUL:          0  USELESS:          0
LLC AVERAGE iMISS LATENCY: 46.4666 cycles
LLC AVERAGE dMISS LATENCY: 93.437 cycles
LLC AVERAGE itMISS LATENCY: 4.5121 cycles
LLC AVERAGE dtMISS LATENCY: 13.1771 cycles
LLC PAGE CROSSINGS (TLB HIT):         0 
LLC PAGE CROSSINGS (TLB MISS):         0 
LLC AVERAGE MISS LATENCY: 157.593 cycles

PageTableWalker TOTAL       ACCESS:      88976  
PageTableWalker AVERAGE LATENCY: 5.21208 cycles
PageTableWalker TOTAL LATENCY: 463750 cycles

DRAM Statistics
Channel 0
 RQ ROW_BUFFER_HIT:     300592
  ROW_BUFFER_MISS:     824274
 AVG DBUS CONGESTED CYCLE:    3.62147
 WQ ROW_BUFFER_HIT:      22916
  ROW_BUFFER_MISS:      21399  FULL:          0

