last_page:0x200000000000000
VMEM_RES_CAP:0x100000
PAGE_SIZE:4096
LOG2_PAGE_SIZE:12
LOG2_PAGE_TABLE_SIZE:9
page_table_levels:5
WARNING: physical memory size is smaller than virtual memory size
FDiP enabled with aggresivity 16

*** ChampSim Multicore Out-of-Order Simulator ***

Warmup Instructions: 50000000
Simulation Instructions: 100000000
Number of CPUs: 1
Small page size: 4096
Large page size: 2097152

CPU 0 Bimodal branch predictor
Basic BTB sets: 1024 ways: 8 indirect buffer size: 4096 RAS size: 64
Instruction page size distrubution: 0
Loading instruction page size distribution from /home/bsc/bsc018186/scratch/itp_asplos25_AE/dump/srv364_ap.pdst
Data page size distrubution: 0
Loading data page size distribution from /home/bsc/bsc018186/scratch/itp_asplos25_AE/dump/srv364_ap.pdst
cpu0_L2C IP-based stride prefetcher
cpu0_L1D next line prefetcher
CHiRPing...
cpu0_L1I next line prefetcher
Off-chip DRAM Size: 4 GiB Channels: 1 Width: 64-bit Data Rate: 3200 MT/s
Heartbeat CPU 0 instructions: 10000002 cycles: 2500187 heartbeat IPC: 3.99971 cumulative IPC: 3.99971 (Simulation time: 0 hr 0 min 39 sec) 
Heartbeat CPU 0 instructions: 20000001 cycles: 5000234 heartbeat IPC: 3.99993 cumulative IPC: 3.99982 (Simulation time: 0 hr 1 min 21 sec) 
Heartbeat CPU 0 instructions: 30000001 cycles: 7500280 heartbeat IPC: 3.99993 cumulative IPC: 3.99986 (Simulation time: 0 hr 2 min 2 sec) 
Heartbeat CPU 0 instructions: 40000000 cycles: 10000336 heartbeat IPC: 3.99992 cumulative IPC: 3.99987 (Simulation time: 0 hr 2 min 45 sec) 
Heartbeat CPU 0 instructions: 50000001 cycles: 12500384 heartbeat IPC: 3.99993 cumulative IPC: 3.99988 (Simulation time: 0 hr 3 min 27 sec) 
Warmup finished CPU 0 instructions: 50000001 cycles: 12500385 cumulative IPC: 3.99988 (Simulation time: 0 hr 3 min 27 sec) 

Warmup complete CPU 0 instructions: 50000001 cycles: 12500385 (Simulation time: 0 hr 3 min 27 sec) 

Heartbeat CPU 0 instructions: 60000003 cycles: 29908168 heartbeat IPC: 0.574456 cumulative IPC: 0.574456 (Simulation time: 0 hr 4 min 37 sec) 
Heartbeat CPU 0 instructions: 70000002 cycles: 48239341 heartbeat IPC: 0.545519 cumulative IPC: 0.559614 (Simulation time: 0 hr 5 min 47 sec) 
Heartbeat CPU 0 instructions: 80000003 cycles: 66693192 heartbeat IPC: 0.541893 cumulative IPC: 0.55358 (Simulation time: 0 hr 6 min 58 sec) 
Heartbeat CPU 0 instructions: 90000000 cycles: 85167531 heartbeat IPC: 0.541292 cumulative IPC: 0.550456 (Simulation time: 0 hr 8 min 9 sec) 
Heartbeat CPU 0 instructions: 100000002 cycles: 99734025 heartbeat IPC: 0.686508 cumulative IPC: 0.573174 (Simulation time: 0 hr 9 min 17 sec) 
*** Reached end of trace: /gpfs/projects/bsc18/MN4/bsc18/romol/ChampSim/traces/qualcomm_srv/srv364_ap.champsimtrace.xz
Heartbeat CPU 0 instructions: 110000000 cycles: 114738859 heartbeat IPC: 0.666452 cumulative IPC: 0.586864 (Simulation time: 0 hr 10 min 24 sec) 
Heartbeat CPU 0 instructions: 120000004 cycles: 132928633 heartbeat IPC: 0.54976 cumulative IPC: 0.581259 (Simulation time: 0 hr 11 min 34 sec) 
Heartbeat CPU 0 instructions: 130000001 cycles: 151439223 heartbeat IPC: 0.540232 cumulative IPC: 0.575793 (Simulation time: 0 hr 12 min 44 sec) 
Heartbeat CPU 0 instructions: 140000000 cycles: 169363177 heartbeat IPC: 0.557913 cumulative IPC: 0.57375 (Simulation time: 0 hr 13 min 54 sec) 
Heartbeat CPU 0 instructions: 150000003 cycles: 187176104 heartbeat IPC: 0.561391 cumulative IPC: 0.57249 (Simulation time: 0 hr 15 min 4 sec) 
Simulation finished CPU 0 instructions: 100000002 cycles: 174675720 cumulative IPC: 0.57249 (Simulation time: 0 hr 15 min 4 sec) 

Simulation complete CPU 0 instructions: 100000002 cycles: 174675720 (Simulation time: 0 hr 15 min 4 sec) 


ChampSim completed all CPUs

Saving instructions large page distribution to /home/bsc/bsc018186/scratch/itp_asplos25_AE/dump/srv364_ap.pdst...
Saving data large page distribution to /home/bsc/bsc018186/scratch/itp_asplos25_AE/dump/srv364_ap.pdst...
=== Simulation ===
CPU 0 runs /gpfs/projects/bsc18/MN4/bsc18/romol/ChampSim/traces/qualcomm_srv/srv364_ap.champsimtrace.xz

Region of Interest Statistics

CPU 0 cumulative IPC: 0.57249 instructions: 100000002 cycles: 174675720
CPU 0 Branch Prediction Accuracy: 81.9892% MPKI: 33.8614 Average ROB Occupancy at Mispredict: 11.3015
Branch type MPKI
BRANCH_DIRECT_JUMP: 1.23984
BRANCH_INDIRECT: 17.0614
BRANCH_CONDITIONAL: 10.9182
BRANCH_DIRECT_CALL: 2.32983
BRANCH_INDIRECT_CALL: 0.68171
BRANCH_RETURN: 1.63037

Instructions large pages: 0
Instructions small pages: 1091
Large page distribution for instructions: 0%

Data large pages: 0
Data small pages: 4518
Large page distribution for data: 0%

cpu0_L1I TOTAL       ACCESS:   35268284  HIT:   27490115  MISS:    7778169  iACCESS:   35268284  iHIT:   27490115  iMISS:    7778169  dACCESS:          0  dHIT:          0  dMISS:          0  itACCESS:          0  itHIT:          0  itMISS:          0  dtACCESS:          0  dtHIT:          0  dtMISS:          0
cpu0_L1I LOAD         ACCESS:    9706560  HIT:    7578167  MISS:    2128393  iACCESS:    9706560  iHIT:    7578167  iMISS:    2128393  dACCESS:          0  dHIT:          0  dMISS:          0  itACCESS:          0  itHIT:          0  itMISS:          0  dtACCESS:          0  dtHIT:          0  dtMISS:          0
cpu0_L1I RFO          ACCESS:          0  HIT:          0  MISS:          0  iACCESS:          0  iHIT:          0  iMISS:          0  dACCESS:          0  dHIT:          0  dMISS:          0  itACCESS:          0  itHIT:          0  itMISS:          0  dtACCESS:          0  dtHIT:          0  dtMISS:          0
cpu0_L1I PREFETCH     ACCESS:   25561724  HIT:   19911948  MISS:    5649776  iACCESS:   25561724  iHIT:   19911948  iMISS:    5649776  dACCESS:          0  dHIT:          0  dMISS:          0  itACCESS:          0  itHIT:          0  itMISS:          0  dtACCESS:          0  dtHIT:          0  dtMISS:          0
cpu0_L1I WRITE        ACCESS:          0  HIT:          0  MISS:          0  iACCESS:          0  iHIT:          0  iMISS:          0  dACCESS:          0  dHIT:          0  dMISS:          0  itACCESS:          0  itHIT:          0  itMISS:          0  dtACCESS:          0  dtHIT:          0  dtMISS:          0
cpu0_L1I TRANSLATION  ACCESS:          0  HIT:          0  MISS:          0  iACCESS:          0  iHIT:          0  iMISS:          0  dACCESS:          0  dHIT:          0  dMISS:          0  itACCESS:          0  itHIT:          0  itMISS:          0  dtACCESS:          0  dtHIT:          0  dtMISS:          0
cpu0_L1I PREFETCH  REQUESTED:   27626190  ISSUED:   27624306  CROSSED:          0  USEFUL:    1847022  USELESS:     610568
cpu0_L1I AVERAGE iMISS LATENCY: 18.7353 cycles
cpu0_L1I AVERAGE dMISS LATENCY: 0 cycles
cpu0_L1I AVERAGE itMISS LATENCY: 0 cycles
cpu0_L1I AVERAGE dtMISS LATENCY: 0 cycles
cpu0_L1I PAGE CROSSINGS (TLB HIT):         0 
cpu0_L1I PAGE CROSSINGS (TLB MISS):         0 
cpu0_L1I AVERAGE MISS LATENCY: 18.7353 cycles
cpu0_ITLB TOTAL       ACCESS:   29551615  HIT:   27743809  MISS:    1807806  iACCESS:   29551615  iHIT:   27743809  iMISS:    1807806  dACCESS:          0  dHIT:          0  dMISS:          0  itACCESS:          0  itHIT:          0  itMISS:          0  dtACCESS:          0  dtHIT:          0  dtMISS:          0
cpu0_ITLB LOAD         ACCESS:   29551615  HIT:   27743809  MISS:    1807806  iACCESS:   29551615  iHIT:   27743809  iMISS:    1807806  dACCESS:          0  dHIT:          0  dMISS:          0  itACCESS:          0  itHIT:          0  itMISS:          0  dtACCESS:          0  dtHIT:          0  dtMISS:          0
cpu0_ITLB RFO          ACCESS:          0  HIT:          0  MISS:          0  iACCESS:          0  iHIT:          0  iMISS:          0  dACCESS:          0  dHIT:          0  dMISS:          0  itACCESS:          0  itHIT:          0  itMISS:          0  dtACCESS:          0  dtHIT:          0  dtMISS:          0
cpu0_ITLB PREFETCH     ACCESS:          0  HIT:          0  MISS:          0  iACCESS:          0  iHIT:          0  iMISS:          0  dACCESS:          0  dHIT:          0  dMISS:          0  itACCESS:          0  itHIT:          0  itMISS:          0  dtACCESS:          0  dtHIT:          0  dtMISS:          0
cpu0_ITLB WRITE        ACCESS:          0  HIT:          0  MISS:          0  iACCESS:          0  iHIT:          0  iMISS:          0  dACCESS:          0  dHIT:          0  dMISS:          0  itACCESS:          0  itHIT:          0  itMISS:          0  dtACCESS:          0  dtHIT:          0  dtMISS:          0
cpu0_ITLB TRANSLATION  ACCESS:          0  HIT:          0  MISS:          0  iACCESS:          0  iHIT:          0  iMISS:          0  dACCESS:          0  dHIT:          0  dMISS:          0  itACCESS:          0  itHIT:          0  itMISS:          0  dtACCESS:          0  dtHIT:          0  dtMISS:          0
cpu0_ITLB PREFETCH  REQUESTED:          0  ISSUED:          0  CROSSED:          0  USEFUL:     308606  USELESS:      57542
cpu0_ITLB AVERAGE iMISS LATENCY: 4.03035 cycles
cpu0_ITLB AVERAGE dMISS LATENCY: 0 cycles
cpu0_ITLB AVERAGE itMISS LATENCY: 0 cycles
cpu0_ITLB AVERAGE dtMISS LATENCY: 0 cycles
cpu0_ITLB PAGE CROSSINGS (TLB HIT):         0 
cpu0_ITLB PAGE CROSSINGS (TLB MISS):         0 
cpu0_ITLB AVERAGE MISS LATENCY: 4.03035 cycles
cpu0_DTLB TOTAL       ACCESS:   29037314  HIT:   25613761  MISS:    3423553  iACCESS:          0  iHIT:          0  iMISS:          0  dACCESS:   29037314  dHIT:   25613761  dMISS:    3423553  itACCESS:          0  itHIT:          0  itMISS:          0  dtACCESS:          0  dtHIT:          0  dtMISS:          0
cpu0_DTLB LOAD         ACCESS:   29037314  HIT:   25613761  MISS:    3423553  iACCESS:          0  iHIT:          0  iMISS:          0  dACCESS:   29037314  dHIT:   25613761  dMISS:    3423553  itACCESS:          0  itHIT:          0  itMISS:          0  dtACCESS:          0  dtHIT:          0  dtMISS:          0
cpu0_DTLB RFO          ACCESS:          0  HIT:          0  MISS:          0  iACCESS:          0  iHIT:          0  iMISS:          0  dACCESS:          0  dHIT:          0  dMISS:          0  itACCESS:          0  itHIT:          0  itMISS:          0  dtACCESS:          0  dtHIT:          0  dtMISS:          0
cpu0_DTLB PREFETCH     ACCESS:          0  HIT:          0  MISS:          0  iACCESS:          0  iHIT:          0  iMISS:          0  dACCESS:          0  dHIT:          0  dMISS:          0  itACCESS:          0  itHIT:          0  itMISS:          0  dtACCESS:          0  dtHIT:          0  dtMISS:          0
cpu0_DTLB WRITE        ACCESS:          0  HIT:          0  MISS:          0  iACCESS:          0  iHIT:          0  iMISS:          0  dACCESS:          0  dHIT:          0  dMISS:          0  itACCESS:          0  itHIT:          0  itMISS:          0  dtACCESS:          0  dtHIT:          0  dtMISS:          0
cpu0_DTLB TRANSLATION  ACCESS:          0  HIT:          0  MISS:          0  iACCESS:          0  iHIT:          0  iMISS:          0  dACCESS:          0  dHIT:          0  dMISS:          0  itACCESS:          0  itHIT:          0  itMISS:          0  dtACCESS:          0  dtHIT:          0  dtMISS:          0
cpu0_DTLB PREFETCH  REQUESTED:          0  ISSUED:          0  CROSSED:          0  USEFUL:          0  USELESS:          0
cpu0_DTLB AVERAGE iMISS LATENCY: 0 cycles
cpu0_DTLB AVERAGE dMISS LATENCY: 8.06663 cycles
cpu0_DTLB AVERAGE itMISS LATENCY: 0 cycles
cpu0_DTLB AVERAGE dtMISS LATENCY: 0 cycles
cpu0_DTLB PAGE CROSSINGS (TLB HIT):         0 
cpu0_DTLB PAGE CROSSINGS (TLB MISS):         0 
cpu0_DTLB AVERAGE MISS LATENCY: 8.06663 cycles
cpu0_STLB TOTAL       ACCESS:    2258540  HIT:    2035320  MISS:     223220  iACCESS:     366158  iHIT:     281409  iMISS:      84749  dACCESS:    1892382  dHIT:    1753911  dMISS:     138471  itACCESS:          0  itHIT:          0  itMISS:          0  dtACCESS:          0  dtHIT:          0  dtMISS:          0
cpu0_STLB LOAD         ACCESS:    2258540  HIT:    2035320  MISS:     223220  iACCESS:     366158  iHIT:     281409  iMISS:      84749  dACCESS:    1892382  dHIT:    1753911  dMISS:     138471  itACCESS:          0  itHIT:          0  itMISS:          0  dtACCESS:          0  dtHIT:          0  dtMISS:          0
cpu0_STLB RFO          ACCESS:          0  HIT:          0  MISS:          0  iACCESS:          0  iHIT:          0  iMISS:          0  dACCESS:          0  dHIT:          0  dMISS:          0  itACCESS:          0  itHIT:          0  itMISS:          0  dtACCESS:          0  dtHIT:          0  dtMISS:          0
cpu0_STLB PREFETCH     ACCESS:          0  HIT:          0  MISS:          0  iACCESS:          0  iHIT:          0  iMISS:          0  dACCESS:          0  dHIT:          0  dMISS:          0  itACCESS:          0  itHIT:          0  itMISS:          0  dtACCESS:          0  dtHIT:          0  dtMISS:          0
cpu0_STLB WRITE        ACCESS:          0  HIT:          0  MISS:          0  iACCESS:          0  iHIT:          0  iMISS:          0  dACCESS:          0  dHIT:          0  dMISS:          0  itACCESS:          0  itHIT:          0  itMISS:          0  dtACCESS:          0  dtHIT:          0  dtMISS:          0
cpu0_STLB TRANSLATION  ACCESS:          0  HIT:          0  MISS:          0  iACCESS:          0  iHIT:          0  iMISS:          0  dACCESS:          0  dHIT:          0  dMISS:          0  itACCESS:          0  itHIT:          0  itMISS:          0  dtACCESS:          0  dtHIT:          0  dtMISS:          0
cpu0_STLB PREFETCH  REQUESTED:          0  ISSUED:          0  CROSSED:          0  USEFUL:          0  USELESS:          0
cpu0_STLB AVERAGE iMISS LATENCY: 19.5377 cycles
cpu0_STLB AVERAGE dMISS LATENCY: 55.3636 cycles
cpu0_STLB AVERAGE itMISS LATENCY: 0 cycles
cpu0_STLB AVERAGE dtMISS LATENCY: 0 cycles
cpu0_STLB PAGE CROSSINGS (TLB HIT):         0 
cpu0_STLB PAGE CROSSINGS (TLB MISS):         0 
cpu0_STLB AVERAGE MISS LATENCY: 74.9012 cycles
cpu0_L1D TOTAL       ACCESS:   44508574  HIT:   38606557  MISS:    5902017  iACCESS:          0  iHIT:          0  iMISS:          0  dACCESS:   44227191  dHIT:   38580003  dMISS:    5647188  itACCESS:      90878  itHIT:      14798  itMISS:      76080  dtACCESS:     190505  dtHIT:      11756  dtMISS:     178749
cpu0_L1D LOAD         ACCESS:   21038765  HIT:   17908557  MISS:    3130208  iACCESS:          0  iHIT:          0  iMISS:          0  dACCESS:   21038765  dHIT:   17908557  dMISS:    3130208  itACCESS:          0  itHIT:          0  itMISS:          0  dtACCESS:          0  dtHIT:          0  dtMISS:          0
cpu0_L1D RFO          ACCESS:          0  HIT:          0  MISS:          0  iACCESS:          0  iHIT:          0  iMISS:          0  dACCESS:          0  dHIT:          0  dMISS:          0  itACCESS:          0  itHIT:          0  itMISS:          0  dtACCESS:          0  dtHIT:          0  dtMISS:          0
cpu0_L1D PREFETCH     ACCESS:   13272423  HIT:   11218482  MISS:    2053941  iACCESS:          0  iHIT:          0  iMISS:          0  dACCESS:   13272423  dHIT:   11218482  dMISS:    2053941  itACCESS:          0  itHIT:          0  itMISS:          0  dtACCESS:          0  dtHIT:          0  dtMISS:          0
cpu0_L1D WRITE        ACCESS:    9916003  HIT:    9452964  MISS:     463039  iACCESS:          0  iHIT:          0  iMISS:          0  dACCESS:    9916003  dHIT:    9452964  dMISS:     463039  itACCESS:          0  itHIT:          0  itMISS:          0  dtACCESS:          0  dtHIT:          0  dtMISS:          0
cpu0_L1D TRANSLATION  ACCESS:     281383  HIT:      26554  MISS:     254829  iACCESS:          0  iHIT:          0  iMISS:          0  dACCESS:          0  dHIT:          0  dMISS:          0  itACCESS:      90878  itHIT:      14798  itMISS:      76080  dtACCESS:     190505  dtHIT:      11756  dtMISS:     178749
cpu0_L1D PREFETCH  REQUESTED:   21038765  ISSUED:   17357389  CROSSED:          0  USEFUL:     291396  USELESS:     723699
cpu0_L1D AVERAGE iMISS LATENCY: 0 cycles
cpu0_L1D AVERAGE dMISS LATENCY: 28.961 cycles
cpu0_L1D AVERAGE itMISS LATENCY: 0.613395 cycles
cpu0_L1D AVERAGE dtMISS LATENCY: 1.78318 cycles
cpu0_L1D PAGE CROSSINGS (TLB HIT):         0 
cpu0_L1D PAGE CROSSINGS (TLB MISS):         0 
cpu0_L1D AVERAGE MISS LATENCY: 31.3575 cycles
cpu0_L2C TOTAL       ACCESS:    7897834  HIT:    2119161  MISS:    5778673  iACCESS:    3134043  iHIT:     808816  iMISS:    2325227  dACCESS:    4514785  dHIT:    1156831  dMISS:    3357954  itACCESS:      76080  itHIT:      53973  itMISS:      22107  dtACCESS:     172926  dtHIT:      99541  dtMISS:      73385
cpu0_L2C LOAD         ACCESS:    2614962  HIT:     753635  MISS:    1861327  iACCESS:     711170  iHIT:     131362  iMISS:     579808  dACCESS:    1903792  dHIT:     622273  dMISS:    1281519  itACCESS:          0  itHIT:          0  itMISS:          0  dtACCESS:          0  dtHIT:          0  dtMISS:          0
cpu0_L2C RFO          ACCESS:     168452  HIT:      45640  MISS:     122812  iACCESS:          0  iHIT:          0  iMISS:          0  dACCESS:     168452  dHIT:      45640  dMISS:     122812  itACCESS:          0  itHIT:          0  itMISS:          0  dtACCESS:          0  dtHIT:          0  dtMISS:          0
cpu0_L2C PREFETCH     ACCESS:    4606766  HIT:    1047577  MISS:    3559189  iACCESS:    2422873  iHIT:     677454  iMISS:    1745419  dACCESS:    2183893  dHIT:     370123  dMISS:    1813770  itACCESS:          0  itHIT:          0  itMISS:          0  dtACCESS:          0  dtHIT:          0  dtMISS:          0
cpu0_L2C WRITE        ACCESS:     258648  HIT:     118795  MISS:     139853  iACCESS:          0  iHIT:          0  iMISS:          0  dACCESS:     258648  dHIT:     118795  dMISS:     139853  itACCESS:          0  itHIT:          0  itMISS:          0  dtACCESS:          0  dtHIT:          0  dtMISS:          0
cpu0_L2C TRANSLATION  ACCESS:     249006  HIT:     153514  MISS:      95492  iACCESS:          0  iHIT:          0  iMISS:          0  dACCESS:          0  dHIT:          0  dMISS:          0  itACCESS:      76080  itHIT:      53973  itMISS:      22107  dtACCESS:     172926  dtHIT:      99541  dtMISS:      73385
cpu0_L2C PREFETCH  REQUESTED:    1408992  ISSUED:    1408840  CROSSED:          0  USEFUL:     380499  USELESS:     411268
cpu0_L2C AVERAGE iMISS LATENCY: 20.3979 cycles
cpu0_L2C AVERAGE dMISS LATENCY: 34.4938 cycles
cpu0_L2C AVERAGE itMISS LATENCY: 0.503808 cycles
cpu0_L2C AVERAGE dtMISS LATENCY: 1.53808 cycles
cpu0_L2C PAGE CROSSINGS (TLB HIT):         0 
cpu0_L2C PAGE CROSSINGS (TLB MISS):         0 
cpu0_L2C AVERAGE MISS LATENCY: 56.9336 cycles
LLC TOTAL       ACCESS:    5603946  HIT:    4166101  MISS:    1437845  iACCESS:    2252661  iHIT:    1736467  iMISS:     516194  dACCESS:    3255793  dHIT:    2388993  dMISS:     866800  itACCESS:      22107  itHIT:       7747  itMISS:      14360  dtACCESS:      73385  dtHIT:      32894  dtMISS:      40491
LLC LOAD         ACCESS:    1855652  HIT:    1539976  MISS:     315676  iACCESS:     578397  iHIT:     472663  iMISS:     105734  dACCESS:    1277255  dHIT:    1067313  dMISS:     209942  itACCESS:          0  itHIT:          0  itMISS:          0  dtACCESS:          0  dtHIT:          0  dtMISS:          0
LLC RFO          ACCESS:     122811  HIT:      72057  MISS:      50754  iACCESS:          0  iHIT:          0  iMISS:          0  dACCESS:     122811  dHIT:      72057  dMISS:      50754  itACCESS:          0  itHIT:          0  itMISS:          0  dtACCESS:          0  dtHIT:          0  dtMISS:          0
LLC PREFETCH     ACCESS:    3389592  HIT:    2382623  MISS:    1006969  iACCESS:    1674264  iHIT:    1263804  iMISS:     410460  dACCESS:    1715328  dHIT:    1118819  dMISS:     596509  itACCESS:          0  itHIT:          0  itMISS:          0  dtACCESS:          0  dtHIT:          0  dtMISS:          0
LLC WRITE        ACCESS:     140399  HIT:     130804  MISS:       9595  iACCESS:          0  iHIT:          0  iMISS:          0  dACCESS:     140399  dHIT:     130804  dMISS:       9595  itACCESS:          0  itHIT:          0  itMISS:          0  dtACCESS:          0  dtHIT:          0  dtMISS:          0
LLC TRANSLATION  ACCESS:      95492  HIT:      40641  MISS:      54851  iACCESS:          0  iHIT:          0  iMISS:          0  dACCESS:          0  dHIT:          0  dMISS:          0  itACCESS:      22107  itHIT:       7747  itMISS:      14360  dtACCESS:      73385  dtHIT:      32894  dtMISS:      40491
LLC PREFETCH  REQUESTED:          0  ISSUED:          0  CROSSED:          0  USEFUL:          0  USELESS:          0
LLC AVERAGE iMISS LATENCY: 51.6374 cycles
LLC AVERAGE dMISS LATENCY: 97.6225 cycles
LLC AVERAGE itMISS LATENCY: 1.7233 cycles
LLC AVERAGE dtMISS LATENCY: 5.18479 cycles
LLC PAGE CROSSINGS (TLB HIT):         0 
LLC PAGE CROSSINGS (TLB MISS):         0 
LLC AVERAGE MISS LATENCY: 156.168 cycles

PageTableWalker TOTAL       ACCESS:     120957  
PageTableWalker AVERAGE LATENCY: 4.16882 cycles
PageTableWalker TOTAL LATENCY: 504247 cycles

DRAM Statistics
Channel 0
 RQ ROW_BUFFER_HIT:     440320
  ROW_BUFFER_MISS:     976930
 AVG DBUS CONGESTED CYCLE:    3.62737
 WQ ROW_BUFFER_HIT:      27685
  ROW_BUFFER_MISS:      21249  FULL:          0

