last_page:0x200000000000000
VMEM_RES_CAP:0x100000
PAGE_SIZE:4096
LOG2_PAGE_SIZE:12
LOG2_PAGE_TABLE_SIZE:9
page_table_levels:5
WARNING: physical memory size is smaller than virtual memory size
FDiP enabled with aggresivity 16

*** ChampSim Multicore Out-of-Order Simulator ***

Warmup Instructions: 50000000
Simulation Instructions: 100000000
Number of CPUs: 1
Small page size: 4096
Large page size: 2097152

CPU 0 Bimodal branch predictor
Basic BTB sets: 1024 ways: 8 indirect buffer size: 4096 RAS size: 64
Instruction page size distrubution: 0
Loading instruction page size distribution from /home/bsc/bsc018186/scratch/itp_asplos25_AE/dump/srv326_ap.pdst
Data page size distrubution: 0
Loading data page size distribution from /home/bsc/bsc018186/scratch/itp_asplos25_AE/dump/srv326_ap.pdst
cpu0_L2C IP-based stride prefetcher
cpu0_L1D next line prefetcher
cpu0_L1I next line prefetcher
Off-chip DRAM Size: 4 GiB Channels: 1 Width: 64-bit Data Rate: 3200 MT/s
Heartbeat CPU 0 instructions: 10000003 cycles: 2500250 heartbeat IPC: 3.99961 cumulative IPC: 3.99961 (Simulation time: 0 hr 0 min 34 sec) 
Heartbeat CPU 0 instructions: 20000001 cycles: 5000437 heartbeat IPC: 3.99971 cumulative IPC: 3.99966 (Simulation time: 0 hr 1 min 11 sec) 
Heartbeat CPU 0 instructions: 30000003 cycles: 7500475 heartbeat IPC: 3.99995 cumulative IPC: 3.99975 (Simulation time: 0 hr 1 min 47 sec) 
Heartbeat CPU 0 instructions: 40000002 cycles: 10000482 heartbeat IPC: 3.99999 cumulative IPC: 3.99981 (Simulation time: 0 hr 2 min 24 sec) 
Heartbeat CPU 0 instructions: 50000001 cycles: 12500624 heartbeat IPC: 3.99978 cumulative IPC: 3.99981 (Simulation time: 0 hr 3 min 1 sec) 
Warmup finished CPU 0 instructions: 50000001 cycles: 12500625 cumulative IPC: 3.99981 (Simulation time: 0 hr 3 min 1 sec) 

Warmup complete CPU 0 instructions: 50000001 cycles: 12500625 (Simulation time: 0 hr 3 min 1 sec) 

Heartbeat CPU 0 instructions: 60000000 cycles: 28036567 heartbeat IPC: 0.643669 cumulative IPC: 0.643669 (Simulation time: 0 hr 4 min 2 sec) 
Heartbeat CPU 0 instructions: 70000003 cycles: 43823502 heartbeat IPC: 0.633436 cumulative IPC: 0.638512 (Simulation time: 0 hr 5 min 2 sec) 
Heartbeat CPU 0 instructions: 80000001 cycles: 59758847 heartbeat IPC: 0.627536 cumulative IPC: 0.634811 (Simulation time: 0 hr 6 min 3 sec) 
Heartbeat CPU 0 instructions: 90000001 cycles: 76329152 heartbeat IPC: 0.60349 cumulative IPC: 0.62668 (Simulation time: 0 hr 7 min 6 sec) 
Heartbeat CPU 0 instructions: 100000001 cycles: 91925621 heartbeat IPC: 0.641171 cumulative IPC: 0.629525 (Simulation time: 0 hr 8 min 6 sec) 
*** Reached end of trace: /gpfs/projects/bsc18/MN4/bsc18/romol/ChampSim/traces/qualcomm_srv/srv326_ap.champsimtrace.xz
Heartbeat CPU 0 instructions: 110000001 cycles: 107044098 heartbeat IPC: 0.661443 cumulative IPC: 0.634629 (Simulation time: 0 hr 9 min 6 sec) 
Heartbeat CPU 0 instructions: 120000000 cycles: 122114271 heartbeat IPC: 0.663563 cumulative IPC: 0.638607 (Simulation time: 0 hr 10 min 6 sec) 
Heartbeat CPU 0 instructions: 130000000 cycles: 136889991 heartbeat IPC: 0.676786 cumulative IPC: 0.643142 (Simulation time: 0 hr 11 min 6 sec) 
Heartbeat CPU 0 instructions: 140000004 cycles: 152006129 heartbeat IPC: 0.661545 cumulative IPC: 0.645136 (Simulation time: 0 hr 12 min 6 sec) 
Heartbeat CPU 0 instructions: 150000000 cycles: 167191994 heartbeat IPC: 0.658507 cumulative IPC: 0.646449 (Simulation time: 0 hr 13 min 7 sec) 
Simulation finished CPU 0 instructions: 100000001 cycles: 154691371 cumulative IPC: 0.646449 (Simulation time: 0 hr 13 min 7 sec) 

Simulation complete CPU 0 instructions: 100000001 cycles: 154691371 (Simulation time: 0 hr 13 min 7 sec) 


ChampSim completed all CPUs

Saving instructions large page distribution to /home/bsc/bsc018186/scratch/itp_asplos25_AE/dump/srv326_ap.pdst...
Saving data large page distribution to /home/bsc/bsc018186/scratch/itp_asplos25_AE/dump/srv326_ap.pdst...
=== Simulation ===
CPU 0 runs /gpfs/projects/bsc18/MN4/bsc18/romol/ChampSim/traces/qualcomm_srv/srv326_ap.champsimtrace.xz

Region of Interest Statistics

CPU 0 cumulative IPC: 0.646449 instructions: 100000001 cycles: 154691371
CPU 0 Branch Prediction Accuracy: 83.4045% MPKI: 29.702 Average ROB Occupancy at Mispredict: 12.92
Branch type MPKI
BRANCH_DIRECT_JUMP: 1.01951
BRANCH_INDIRECT: 15.3612
BRANCH_CONDITIONAL: 9.64145
BRANCH_DIRECT_CALL: 1.83112
BRANCH_INDIRECT_CALL: 0.51536
BRANCH_RETURN: 1.33338

Instructions large pages: 0
Instructions small pages: 1123
Large page distribution for instructions: 0%

Data large pages: 0
Data small pages: 10359
Large page distribution for data: 0%

cpu0_L1I TOTAL       ACCESS:   34733727  HIT:   26937531  MISS:    7796196  iACCESS:   34733727  iHIT:   26937531  iMISS:    7796196  dACCESS:          0  dHIT:          0  dMISS:          0  itACCESS:          0  itHIT:          0  itMISS:          0  dtACCESS:          0  dtHIT:          0  dtMISS:          0
cpu0_L1I LOAD         ACCESS:   10197999  HIT:    7999085  MISS:    2198914  iACCESS:   10197999  iHIT:    7999085  iMISS:    2198914  dACCESS:          0  dHIT:          0  dMISS:          0  itACCESS:          0  itHIT:          0  itMISS:          0  dtACCESS:          0  dtHIT:          0  dtMISS:          0
cpu0_L1I RFO          ACCESS:          0  HIT:          0  MISS:          0  iACCESS:          0  iHIT:          0  iMISS:          0  dACCESS:          0  dHIT:          0  dMISS:          0  itACCESS:          0  itHIT:          0  itMISS:          0  dtACCESS:          0  dtHIT:          0  dtMISS:          0
cpu0_L1I PREFETCH     ACCESS:   24535728  HIT:   18938446  MISS:    5597282  iACCESS:   24535728  iHIT:   18938446  iMISS:    5597282  dACCESS:          0  dHIT:          0  dMISS:          0  itACCESS:          0  itHIT:          0  itMISS:          0  dtACCESS:          0  dtHIT:          0  dtMISS:          0
cpu0_L1I WRITE        ACCESS:          0  HIT:          0  MISS:          0  iACCESS:          0  iHIT:          0  iMISS:          0  dACCESS:          0  dHIT:          0  dMISS:          0  itACCESS:          0  itHIT:          0  itMISS:          0  dtACCESS:          0  dtHIT:          0  dtMISS:          0
cpu0_L1I TRANSLATION  ACCESS:          0  HIT:          0  MISS:          0  iACCESS:          0  iHIT:          0  iMISS:          0  dACCESS:          0  dHIT:          0  dMISS:          0  itACCESS:          0  itHIT:          0  itMISS:          0  dtACCESS:          0  dtHIT:          0  dtMISS:          0
cpu0_L1I PREFETCH  REQUESTED:   27111332  ISSUED:   27111332  CROSSED:          0  USEFUL:    1891753  USELESS:     630582
cpu0_L1I AVERAGE iMISS LATENCY: 13.2611 cycles
cpu0_L1I AVERAGE dMISS LATENCY: 0 cycles
cpu0_L1I AVERAGE itMISS LATENCY: 0 cycles
cpu0_L1I AVERAGE dtMISS LATENCY: 0 cycles
cpu0_L1I PAGE CROSSINGS (TLB HIT):         0 
cpu0_L1I PAGE CROSSINGS (TLB MISS):         0 
cpu0_L1I AVERAGE MISS LATENCY: 13.2611 cycles
cpu0_ITLB TOTAL       ACCESS:   29017764  HIT:   27028801  MISS:    1988963  iACCESS:   29017764  iHIT:   27028801  iMISS:    1988963  dACCESS:          0  dHIT:          0  dMISS:          0  itACCESS:          0  itHIT:          0  itMISS:          0  dtACCESS:          0  dtHIT:          0  dtMISS:          0
cpu0_ITLB LOAD         ACCESS:   29017764  HIT:   27028801  MISS:    1988963  iACCESS:   29017764  iHIT:   27028801  iMISS:    1988963  dACCESS:          0  dHIT:          0  dMISS:          0  itACCESS:          0  itHIT:          0  itMISS:          0  dtACCESS:          0  dtHIT:          0  dtMISS:          0
cpu0_ITLB RFO          ACCESS:          0  HIT:          0  MISS:          0  iACCESS:          0  iHIT:          0  iMISS:          0  dACCESS:          0  dHIT:          0  dMISS:          0  itACCESS:          0  itHIT:          0  itMISS:          0  dtACCESS:          0  dtHIT:          0  dtMISS:          0
cpu0_ITLB PREFETCH     ACCESS:          0  HIT:          0  MISS:          0  iACCESS:          0  iHIT:          0  iMISS:          0  dACCESS:          0  dHIT:          0  dMISS:          0  itACCESS:          0  itHIT:          0  itMISS:          0  dtACCESS:          0  dtHIT:          0  dtMISS:          0
cpu0_ITLB WRITE        ACCESS:          0  HIT:          0  MISS:          0  iACCESS:          0  iHIT:          0  iMISS:          0  dACCESS:          0  dHIT:          0  dMISS:          0  itACCESS:          0  itHIT:          0  itMISS:          0  dtACCESS:          0  dtHIT:          0  dtMISS:          0
cpu0_ITLB TRANSLATION  ACCESS:          0  HIT:          0  MISS:          0  iACCESS:          0  iHIT:          0  iMISS:          0  dACCESS:          0  dHIT:          0  dMISS:          0  itACCESS:          0  itHIT:          0  itMISS:          0  dtACCESS:          0  dtHIT:          0  dtMISS:          0
cpu0_ITLB PREFETCH  REQUESTED:          0  ISSUED:          0  CROSSED:          0  USEFUL:     321685  USELESS:      67311
cpu0_ITLB AVERAGE iMISS LATENCY: 5.17457 cycles
cpu0_ITLB AVERAGE dMISS LATENCY: 0 cycles
cpu0_ITLB AVERAGE itMISS LATENCY: 0 cycles
cpu0_ITLB AVERAGE dtMISS LATENCY: 0 cycles
cpu0_ITLB PAGE CROSSINGS (TLB HIT):         0 
cpu0_ITLB PAGE CROSSINGS (TLB MISS):         0 
cpu0_ITLB AVERAGE MISS LATENCY: 5.17457 cycles
cpu0_DTLB TOTAL       ACCESS:   27690488  HIT:   25649861  MISS:    2040627  iACCESS:          0  iHIT:          0  iMISS:          0  dACCESS:   27690488  dHIT:   25649861  dMISS:    2040627  itACCESS:          0  itHIT:          0  itMISS:          0  dtACCESS:          0  dtHIT:          0  dtMISS:          0
cpu0_DTLB LOAD         ACCESS:   27690488  HIT:   25649861  MISS:    2040627  iACCESS:          0  iHIT:          0  iMISS:          0  dACCESS:   27690488  dHIT:   25649861  dMISS:    2040627  itACCESS:          0  itHIT:          0  itMISS:          0  dtACCESS:          0  dtHIT:          0  dtMISS:          0
cpu0_DTLB RFO          ACCESS:          0  HIT:          0  MISS:          0  iACCESS:          0  iHIT:          0  iMISS:          0  dACCESS:          0  dHIT:          0  dMISS:          0  itACCESS:          0  itHIT:          0  itMISS:          0  dtACCESS:          0  dtHIT:          0  dtMISS:          0
cpu0_DTLB PREFETCH     ACCESS:          0  HIT:          0  MISS:          0  iACCESS:          0  iHIT:          0  iMISS:          0  dACCESS:          0  dHIT:          0  dMISS:          0  itACCESS:          0  itHIT:          0  itMISS:          0  dtACCESS:          0  dtHIT:          0  dtMISS:          0
cpu0_DTLB WRITE        ACCESS:          0  HIT:          0  MISS:          0  iACCESS:          0  iHIT:          0  iMISS:          0  dACCESS:          0  dHIT:          0  dMISS:          0  itACCESS:          0  itHIT:          0  itMISS:          0  dtACCESS:          0  dtHIT:          0  dtMISS:          0
cpu0_DTLB TRANSLATION  ACCESS:          0  HIT:          0  MISS:          0  iACCESS:          0  iHIT:          0  iMISS:          0  dACCESS:          0  dHIT:          0  dMISS:          0  itACCESS:          0  itHIT:          0  itMISS:          0  dtACCESS:          0  dtHIT:          0  dtMISS:          0
cpu0_DTLB PREFETCH  REQUESTED:          0  ISSUED:          0  CROSSED:          0  USEFUL:          0  USELESS:          0
cpu0_DTLB AVERAGE iMISS LATENCY: 0 cycles
cpu0_DTLB AVERAGE dMISS LATENCY: 15.1533 cycles
cpu0_DTLB AVERAGE itMISS LATENCY: 0 cycles
cpu0_DTLB AVERAGE dtMISS LATENCY: 0 cycles
cpu0_DTLB PAGE CROSSINGS (TLB HIT):         0 
cpu0_DTLB PAGE CROSSINGS (TLB MISS):         0 
cpu0_DTLB AVERAGE MISS LATENCY: 15.1533 cycles
cpu0_STLB TOTAL       ACCESS:    1626353  HIT:    1451763  MISS:     174590  iACCESS:     389000  iHIT:     325806  iMISS:      63194  dACCESS:    1237353  dHIT:    1125957  dMISS:     111396  itACCESS:          0  itHIT:          0  itMISS:          0  dtACCESS:          0  dtHIT:          0  dtMISS:          0
cpu0_STLB LOAD         ACCESS:    1626353  HIT:    1451763  MISS:     174590  iACCESS:     389000  iHIT:     325806  iMISS:      63194  dACCESS:    1237353  dHIT:    1125957  dMISS:     111396  itACCESS:          0  itHIT:          0  itMISS:          0  dtACCESS:          0  dtHIT:          0  dtMISS:          0
cpu0_STLB RFO          ACCESS:          0  HIT:          0  MISS:          0  iACCESS:          0  iHIT:          0  iMISS:          0  dACCESS:          0  dHIT:          0  dMISS:          0  itACCESS:          0  itHIT:          0  itMISS:          0  dtACCESS:          0  dtHIT:          0  dtMISS:          0
cpu0_STLB PREFETCH     ACCESS:          0  HIT:          0  MISS:          0  iACCESS:          0  iHIT:          0  iMISS:          0  dACCESS:          0  dHIT:          0  dMISS:          0  itACCESS:          0  itHIT:          0  itMISS:          0  dtACCESS:          0  dtHIT:          0  dtMISS:          0
cpu0_STLB WRITE        ACCESS:          0  HIT:          0  MISS:          0  iACCESS:          0  iHIT:          0  iMISS:          0  dACCESS:          0  dHIT:          0  dMISS:          0  itACCESS:          0  itHIT:          0  itMISS:          0  dtACCESS:          0  dtHIT:          0  dtMISS:          0
cpu0_STLB TRANSLATION  ACCESS:          0  HIT:          0  MISS:          0  iACCESS:          0  iHIT:          0  iMISS:          0  dACCESS:          0  dHIT:          0  dMISS:          0  itACCESS:          0  itHIT:          0  itMISS:          0  dtACCESS:          0  dtHIT:          0  dtMISS:          0
cpu0_STLB PREFETCH  REQUESTED:          0  ISSUED:          0  CROSSED:          0  USEFUL:          0  USELESS:          0
cpu0_STLB AVERAGE iMISS LATENCY: 41.3047 cycles
cpu0_STLB AVERAGE dMISS LATENCY: 120.595 cycles
cpu0_STLB AVERAGE itMISS LATENCY: 0 cycles
cpu0_STLB AVERAGE dtMISS LATENCY: 0 cycles
cpu0_STLB PAGE CROSSINGS (TLB HIT):         0 
cpu0_STLB PAGE CROSSINGS (TLB MISS):         0 
cpu0_STLB AVERAGE MISS LATENCY: 161.899 cycles
cpu0_L1D TOTAL       ACCESS:   41475236  HIT:   37932773  MISS:    3542463  iACCESS:          0  iHIT:          0  iMISS:          0  dACCESS:   41237180  dHIT:   37911528  dMISS:    3325652  itACCESS:      68609  itHIT:       9771  itMISS:      58838  dtACCESS:     169447  dtHIT:      11474  dtMISS:     157973
cpu0_L1D LOAD         ACCESS:   18895982  HIT:   17372076  MISS:    1523906  iACCESS:          0  iHIT:          0  iMISS:          0  dACCESS:   18895982  dHIT:   17372076  dMISS:    1523906  itACCESS:          0  itHIT:          0  itMISS:          0  dtACCESS:          0  dtHIT:          0  dtMISS:          0
cpu0_L1D RFO          ACCESS:          0  HIT:          0  MISS:          0  iACCESS:          0  iHIT:          0  iMISS:          0  dACCESS:          0  dHIT:          0  dMISS:          0  itACCESS:          0  itHIT:          0  itMISS:          0  dtACCESS:          0  dtHIT:          0  dtMISS:          0
cpu0_L1D PREFETCH     ACCESS:   12125836  HIT:   10765724  MISS:    1360112  iACCESS:          0  iHIT:          0  iMISS:          0  dACCESS:   12125836  dHIT:   10765724  dMISS:    1360112  itACCESS:          0  itHIT:          0  itMISS:          0  dtACCESS:          0  dtHIT:          0  dtMISS:          0
cpu0_L1D WRITE        ACCESS:   10215362  HIT:    9773728  MISS:     441634  iACCESS:          0  iHIT:          0  iMISS:          0  dACCESS:   10215362  dHIT:    9773728  dMISS:     441634  itACCESS:          0  itHIT:          0  itMISS:          0  dtACCESS:          0  dtHIT:          0  dtMISS:          0
cpu0_L1D TRANSLATION  ACCESS:     238056  HIT:      21245  MISS:     216811  iACCESS:          0  iHIT:          0  iMISS:          0  dACCESS:          0  dHIT:          0  dMISS:          0  itACCESS:      68609  itHIT:       9771  itMISS:      58838  dtACCESS:     169447  dtHIT:      11474  dtMISS:     157973
cpu0_L1D PREFETCH  REQUESTED:   18895982  ISSUED:   16917692  CROSSED:          0  USEFUL:     305953  USELESS:     702540
cpu0_L1D AVERAGE iMISS LATENCY: 0 cycles
cpu0_L1D AVERAGE dMISS LATENCY: 33.0053 cycles
cpu0_L1D AVERAGE itMISS LATENCY: 1.87409 cycles
cpu0_L1D AVERAGE dtMISS LATENCY: 5.19881 cycles
cpu0_L1D PAGE CROSSINGS (TLB HIT):         0 
cpu0_L1D PAGE CROSSINGS (TLB MISS):         0 
cpu0_L1D AVERAGE MISS LATENCY: 40.0782 cycles
cpu0_L2C TOTAL       ACCESS:    6948080  HIT:    4017259  MISS:    2930821  iACCESS:    3285459  iHIT:    2187885  iMISS:    1097574  dACCESS:    3456552  dHIT:    1797981  dMISS:    1658571  itACCESS:      58838  itHIT:      10947  itMISS:      47891  dtACCESS:     147231  dtHIT:      20446  dtMISS:     126785
cpu0_L2C LOAD         ACCESS:    1735337  HIT:    1039613  MISS:     695724  iACCESS:     798528  iHIT:     557338  iMISS:     241190  dACCESS:     936809  dHIT:     482275  dMISS:     454534  itACCESS:          0  itHIT:          0  itMISS:          0  dtACCESS:          0  dtHIT:          0  dtMISS:          0
cpu0_L2C RFO          ACCESS:     157751  HIT:      71904  MISS:      85847  iACCESS:          0  iHIT:          0  iMISS:          0  dACCESS:     157751  dHIT:      71904  dMISS:      85847  itACCESS:          0  itHIT:          0  itMISS:          0  dtACCESS:          0  dtHIT:          0  dtMISS:          0
cpu0_L2C PREFETCH     ACCESS:    4561559  HIT:    2588717  MISS:    1972842  iACCESS:    2486931  iHIT:    1630547  iMISS:     856384  dACCESS:    2074628  dHIT:     958170  dMISS:    1116458  itACCESS:          0  itHIT:          0  itMISS:          0  dtACCESS:          0  dtHIT:          0  dtMISS:          0
cpu0_L2C WRITE        ACCESS:     287364  HIT:     285632  MISS:       1732  iACCESS:          0  iHIT:          0  iMISS:          0  dACCESS:     287364  dHIT:     285632  dMISS:       1732  itACCESS:          0  itHIT:          0  itMISS:          0  dtACCESS:          0  dtHIT:          0  dtMISS:          0
cpu0_L2C TRANSLATION  ACCESS:     206069  HIT:      31393  MISS:     174676  iACCESS:          0  iHIT:          0  iMISS:          0  dACCESS:          0  dHIT:          0  dMISS:          0  itACCESS:      58838  itHIT:      10947  itMISS:      47891  dtACCESS:     147231  dtHIT:      20446  dtMISS:     126785
cpu0_L2C PREFETCH  REQUESTED:    1312770  ISSUED:    1312678  CROSSED:          0  USEFUL:     301585  USELESS:     229791
cpu0_L2C AVERAGE iMISS LATENCY: 25.1568 cycles
cpu0_L2C AVERAGE dMISS LATENCY: 47.0109 cycles
cpu0_L2C AVERAGE itMISS LATENCY: 2.06766 cycles
cpu0_L2C AVERAGE dtMISS LATENCY: 5.78449 cycles
cpu0_L2C PAGE CROSSINGS (TLB HIT):         0 
cpu0_L2C PAGE CROSSINGS (TLB MISS):         0 
cpu0_L2C AVERAGE MISS LATENCY: 80.0197 cycles
LLC TOTAL       ACCESS:    2958561  HIT:    1827142  MISS:    1131419  iACCESS:    1044278  iHIT:     684846  iMISS:     359432  dACCESS:    1739607  dHIT:    1078005  dMISS:     661602  itACCESS:      47891  itHIT:      18019  itMISS:      29872  dtACCESS:     126785  dtHIT:      46272  dtMISS:      80513
LLC LOAD         ACCESS:     693739  HIT:     444997  MISS:     248742  iACCESS:     240109  iHIT:     160269  iMISS:      79840  dACCESS:     453630  dHIT:     284728  dMISS:     168902  itACCESS:          0  itHIT:          0  itMISS:          0  dtACCESS:          0  dtHIT:          0  dtMISS:          0
LLC RFO          ACCESS:      85844  HIT:      43970  MISS:      41874  iACCESS:          0  iHIT:          0  iMISS:          0  dACCESS:      85844  dHIT:      43970  dMISS:      41874  itACCESS:          0  itHIT:          0  itMISS:          0  dtACCESS:          0  dtHIT:          0  dtMISS:          0
LLC PREFETCH     ACCESS:    1864888  HIT:    1140933  MISS:     723955  iACCESS:     804169  iHIT:     524577  iMISS:     279592  dACCESS:    1060719  dHIT:     616356  dMISS:     444363  itACCESS:          0  itHIT:          0  itMISS:          0  dtACCESS:          0  dtHIT:          0  dtMISS:          0
LLC WRITE        ACCESS:     139414  HIT:     132951  MISS:       6463  iACCESS:          0  iHIT:          0  iMISS:          0  dACCESS:     139414  dHIT:     132951  dMISS:       6463  itACCESS:          0  itHIT:          0  itMISS:          0  dtACCESS:          0  dtHIT:          0  dtMISS:          0
LLC TRANSLATION  ACCESS:     174676  HIT:      64291  MISS:     110385  iACCESS:          0  iHIT:          0  iMISS:          0  dACCESS:          0  dHIT:          0  dMISS:          0  itACCESS:      47891  itHIT:      18019  itMISS:      29872  dtACCESS:     126785  dtHIT:      46272  dtMISS:      80513
LLC PREFETCH  REQUESTED:          0  ISSUED:          0  CROSSED:          0  USEFUL:          0  USELESS:          0
LLC AVERAGE iMISS LATENCY: 47.228 cycles
LLC AVERAGE dMISS LATENCY: 94.5979 cycles
LLC AVERAGE itMISS LATENCY: 4.52698 cycles
LLC AVERAGE dtMISS LATENCY: 12.7901 cycles
LLC PAGE CROSSINGS (TLB HIT):         0 
LLC PAGE CROSSINGS (TLB MISS):         0 
LLC AVERAGE MISS LATENCY: 159.143 cycles

PageTableWalker TOTAL       ACCESS:      85580  
PageTableWalker AVERAGE LATENCY: 5.26004 cycles
PageTableWalker TOTAL LATENCY: 450154 cycles

DRAM Statistics
Channel 0
 RQ ROW_BUFFER_HIT:     292791
  ROW_BUFFER_MISS:     831402
 AVG DBUS CONGESTED CYCLE:    3.62177
 WQ ROW_BUFFER_HIT:      24221
  ROW_BUFFER_MISS:      23870  FULL:          0

