last_page:0x200000000000000
VMEM_RES_CAP:0x100000
PAGE_SIZE:4096
LOG2_PAGE_SIZE:12
LOG2_PAGE_TABLE_SIZE:9
page_table_levels:5
WARNING: physical memory size is smaller than virtual memory size
FDiP enabled with aggresivity 16

*** ChampSim Multicore Out-of-Order Simulator ***

Warmup Instructions: 50000000
Simulation Instructions: 100000000
Number of CPUs: 1
Small page size: 4096
Large page size: 2097152

CPU 0 Bimodal branch predictor
Basic BTB sets: 1024 ways: 8 indirect buffer size: 4096 RAS size: 64
Instruction page size distrubution: 0
Loading instruction page size distribution from /home/bsc/bsc018186/scratch/itp_asplos25_AE/dump/srv393_ap.pdst
Data page size distrubution: 0
Loading data page size distribution from /home/bsc/bsc018186/scratch/itp_asplos25_AE/dump/srv393_ap.pdst
cpu0_L2C IP-based stride prefetcher
cpu0_L2C is using PTP replacement policy:
	TLB_STRESS_THRESHOLD:0
	PTE_EVICTION_RATIO:0
cpu0_L1D next line prefetcher
cpu0_L1I next line prefetcher
Off-chip DRAM Size: 4 GiB Channels: 1 Width: 64-bit Data Rate: 3200 MT/s
Heartbeat CPU 0 instructions: 10000000 cycles: 2500156 heartbeat IPC: 3.99976 cumulative IPC: 3.99976 (Simulation time: 0 hr 0 min 38 sec) 
Heartbeat CPU 0 instructions: 20000002 cycles: 5000310 heartbeat IPC: 3.99976 cumulative IPC: 3.99976 (Simulation time: 0 hr 1 min 18 sec) 
Heartbeat CPU 0 instructions: 30000000 cycles: 7500343 heartbeat IPC: 3.99995 cumulative IPC: 3.99982 (Simulation time: 0 hr 1 min 59 sec) 
Heartbeat CPU 0 instructions: 40000003 cycles: 10000406 heartbeat IPC: 3.99991 cumulative IPC: 3.99984 (Simulation time: 0 hr 2 min 40 sec) 
Heartbeat CPU 0 instructions: 50000001 cycles: 12500533 heartbeat IPC: 3.9998 cumulative IPC: 3.99983 (Simulation time: 0 hr 3 min 21 sec) 
Warmup finished CPU 0 instructions: 50000001 cycles: 12500534 cumulative IPC: 3.99983 (Simulation time: 0 hr 3 min 21 sec) 

Warmup complete CPU 0 instructions: 50000001 cycles: 12500534 (Simulation time: 0 hr 3 min 21 sec) 

Heartbeat CPU 0 instructions: 60000003 cycles: 27486088 heartbeat IPC: 0.66731 cumulative IPC: 0.66731 (Simulation time: 0 hr 4 min 27 sec) 
Heartbeat CPU 0 instructions: 70000000 cycles: 43662884 heartbeat IPC: 0.61817 cumulative IPC: 0.641801 (Simulation time: 0 hr 5 min 34 sec) 
Heartbeat CPU 0 instructions: 80000000 cycles: 59073438 heartbeat IPC: 0.648906 cumulative IPC: 0.644152 (Simulation time: 0 hr 6 min 38 sec) 
Heartbeat CPU 0 instructions: 90000000 cycles: 75845593 heartbeat IPC: 0.596227 cumulative IPC: 0.631463 (Simulation time: 0 hr 7 min 45 sec) 
Heartbeat CPU 0 instructions: 100000000 cycles: 91195315 heartbeat IPC: 0.651478 cumulative IPC: 0.635367 (Simulation time: 0 hr 8 min 50 sec) 
*** Reached end of trace: /gpfs/projects/bsc18/MN4/bsc18/romol/ChampSim/traces/qualcomm_srv/srv393_ap.champsimtrace.xz
Heartbeat CPU 0 instructions: 110000002 cycles: 106647891 heartbeat IPC: 0.647142 cumulative IPC: 0.637299 (Simulation time: 0 hr 9 min 55 sec) 
Heartbeat CPU 0 instructions: 120000002 cycles: 122705536 heartbeat IPC: 0.622757 cumulative IPC: 0.63518 (Simulation time: 0 hr 11 min 3 sec) 
Heartbeat CPU 0 instructions: 130000000 cycles: 137444734 heartbeat IPC: 0.678463 cumulative IPC: 0.640286 (Simulation time: 0 hr 12 min 8 sec) 
Heartbeat CPU 0 instructions: 140000002 cycles: 152175743 heartbeat IPC: 0.678841 cumulative IPC: 0.644353 (Simulation time: 0 hr 13 min 12 sec) 
Heartbeat CPU 0 instructions: 150000001 cycles: 167012167 heartbeat IPC: 0.674017 cumulative IPC: 0.647201 (Simulation time: 0 hr 14 min 16 sec) 
Simulation finished CPU 0 instructions: 100000000 cycles: 154511634 cumulative IPC: 0.647201 (Simulation time: 0 hr 14 min 16 sec) 

Simulation complete CPU 0 instructions: 100000000 cycles: 154511634 (Simulation time: 0 hr 14 min 16 sec) 


ChampSim completed all CPUs

Saving instructions large page distribution to /home/bsc/bsc018186/scratch/itp_asplos25_AE/dump/srv393_ap.pdst...
Saving data large page distribution to /home/bsc/bsc018186/scratch/itp_asplos25_AE/dump/srv393_ap.pdst...
=== Simulation ===
CPU 0 runs /gpfs/projects/bsc18/MN4/bsc18/romol/ChampSim/traces/qualcomm_srv/srv393_ap.champsimtrace.xz

Region of Interest Statistics

CPU 0 cumulative IPC: 0.647201 instructions: 100000000 cycles: 154511634
CPU 0 Branch Prediction Accuracy: 83.2998% MPKI: 29.8572 Average ROB Occupancy at Mispredict: 12.537
Branch type MPKI
BRANCH_DIRECT_JUMP: 1.03689
BRANCH_INDIRECT: 15.3649
BRANCH_CONDITIONAL: 9.72701
BRANCH_DIRECT_CALL: 1.86548
BRANCH_INDIRECT_CALL: 0.509731
BRANCH_RETURN: 1.35326

Instructions large pages: 0
Instructions small pages: 1028
Large page distribution for instructions: 0%

Data large pages: 0
Data small pages: 10369
Large page distribution for data: 0%

cpu0_L1I TOTAL       ACCESS:   34662408  HIT:   26936931  MISS:    7725477  iACCESS:   34662408  iHIT:   26936931  iMISS:    7725477  dACCESS:          0  dHIT:          0  dMISS:          0  itACCESS:          0  itHIT:          0  itMISS:          0  dtACCESS:          0  dtHIT:          0  dtMISS:          0
cpu0_L1I LOAD         ACCESS:   10182956  HIT:    8010803  MISS:    2172153  iACCESS:   10182956  iHIT:    8010803  iMISS:    2172153  dACCESS:          0  dHIT:          0  dMISS:          0  itACCESS:          0  itHIT:          0  itMISS:          0  dtACCESS:          0  dtHIT:          0  dtMISS:          0
cpu0_L1I RFO          ACCESS:          0  HIT:          0  MISS:          0  iACCESS:          0  iHIT:          0  iMISS:          0  dACCESS:          0  dHIT:          0  dMISS:          0  itACCESS:          0  itHIT:          0  itMISS:          0  dtACCESS:          0  dtHIT:          0  dtMISS:          0
cpu0_L1I PREFETCH     ACCESS:   24479452  HIT:   18926128  MISS:    5553324  iACCESS:   24479452  iHIT:   18926128  iMISS:    5553324  dACCESS:          0  dHIT:          0  dMISS:          0  itACCESS:          0  itHIT:          0  itMISS:          0  dtACCESS:          0  dtHIT:          0  dtMISS:          0
cpu0_L1I WRITE        ACCESS:          0  HIT:          0  MISS:          0  iACCESS:          0  iHIT:          0  iMISS:          0  dACCESS:          0  dHIT:          0  dMISS:          0  itACCESS:          0  itHIT:          0  itMISS:          0  dtACCESS:          0  dtHIT:          0  dtMISS:          0
cpu0_L1I TRANSLATION  ACCESS:          0  HIT:          0  MISS:          0  iACCESS:          0  iHIT:          0  iMISS:          0  dACCESS:          0  dHIT:          0  dMISS:          0  itACCESS:          0  itHIT:          0  itMISS:          0  dtACCESS:          0  dtHIT:          0  dtMISS:          0
cpu0_L1I PREFETCH  REQUESTED:   27064779  ISSUED:   27064779  CROSSED:          0  USEFUL:    1878939  USELESS:     623833
cpu0_L1I AVERAGE iMISS LATENCY: 13.1793 cycles
cpu0_L1I AVERAGE dMISS LATENCY: 0 cycles
cpu0_L1I AVERAGE itMISS LATENCY: 0 cycles
cpu0_L1I AVERAGE dtMISS LATENCY: 0 cycles
cpu0_L1I PAGE CROSSINGS (TLB HIT):         0 
cpu0_L1I PAGE CROSSINGS (TLB MISS):         0 
cpu0_L1I AVERAGE MISS LATENCY: 13.1793 cycles
cpu0_ITLB TOTAL       ACCESS:   28950782  HIT:   26980039  MISS:    1970743  iACCESS:   28950782  iHIT:   26980039  iMISS:    1970743  dACCESS:          0  dHIT:          0  dMISS:          0  itACCESS:          0  itHIT:          0  itMISS:          0  dtACCESS:          0  dtHIT:          0  dtMISS:          0
cpu0_ITLB LOAD         ACCESS:   28950782  HIT:   26980039  MISS:    1970743  iACCESS:   28950782  iHIT:   26980039  iMISS:    1970743  dACCESS:          0  dHIT:          0  dMISS:          0  itACCESS:          0  itHIT:          0  itMISS:          0  dtACCESS:          0  dtHIT:          0  dtMISS:          0
cpu0_ITLB RFO          ACCESS:          0  HIT:          0  MISS:          0  iACCESS:          0  iHIT:          0  iMISS:          0  dACCESS:          0  dHIT:          0  dMISS:          0  itACCESS:          0  itHIT:          0  itMISS:          0  dtACCESS:          0  dtHIT:          0  dtMISS:          0
cpu0_ITLB PREFETCH     ACCESS:          0  HIT:          0  MISS:          0  iACCESS:          0  iHIT:          0  iMISS:          0  dACCESS:          0  dHIT:          0  dMISS:          0  itACCESS:          0  itHIT:          0  itMISS:          0  dtACCESS:          0  dtHIT:          0  dtMISS:          0
cpu0_ITLB WRITE        ACCESS:          0  HIT:          0  MISS:          0  iACCESS:          0  iHIT:          0  iMISS:          0  dACCESS:          0  dHIT:          0  dMISS:          0  itACCESS:          0  itHIT:          0  itMISS:          0  dtACCESS:          0  dtHIT:          0  dtMISS:          0
cpu0_ITLB TRANSLATION  ACCESS:          0  HIT:          0  MISS:          0  iACCESS:          0  iHIT:          0  iMISS:          0  dACCESS:          0  dHIT:          0  dMISS:          0  itACCESS:          0  itHIT:          0  itMISS:          0  dtACCESS:          0  dtHIT:          0  dtMISS:          0
cpu0_ITLB PREFETCH  REQUESTED:          0  ISSUED:          0  CROSSED:          0  USEFUL:     319219  USELESS:      66999
cpu0_ITLB AVERAGE iMISS LATENCY: 5.19648 cycles
cpu0_ITLB AVERAGE dMISS LATENCY: 0 cycles
cpu0_ITLB AVERAGE itMISS LATENCY: 0 cycles
cpu0_ITLB AVERAGE dtMISS LATENCY: 0 cycles
cpu0_ITLB PAGE CROSSINGS (TLB HIT):         0 
cpu0_ITLB PAGE CROSSINGS (TLB MISS):         0 
cpu0_ITLB AVERAGE MISS LATENCY: 5.19648 cycles
cpu0_DTLB TOTAL       ACCESS:   27682744  HIT:   25853706  MISS:    1829038  iACCESS:          0  iHIT:          0  iMISS:          0  dACCESS:   27682744  dHIT:   25853706  dMISS:    1829038  itACCESS:          0  itHIT:          0  itMISS:          0  dtACCESS:          0  dtHIT:          0  dtMISS:          0
cpu0_DTLB LOAD         ACCESS:   27682744  HIT:   25853706  MISS:    1829038  iACCESS:          0  iHIT:          0  iMISS:          0  dACCESS:   27682744  dHIT:   25853706  dMISS:    1829038  itACCESS:          0  itHIT:          0  itMISS:          0  dtACCESS:          0  dtHIT:          0  dtMISS:          0
cpu0_DTLB RFO          ACCESS:          0  HIT:          0  MISS:          0  iACCESS:          0  iHIT:          0  iMISS:          0  dACCESS:          0  dHIT:          0  dMISS:          0  itACCESS:          0  itHIT:          0  itMISS:          0  dtACCESS:          0  dtHIT:          0  dtMISS:          0
cpu0_DTLB PREFETCH     ACCESS:          0  HIT:          0  MISS:          0  iACCESS:          0  iHIT:          0  iMISS:          0  dACCESS:          0  dHIT:          0  dMISS:          0  itACCESS:          0  itHIT:          0  itMISS:          0  dtACCESS:          0  dtHIT:          0  dtMISS:          0
cpu0_DTLB WRITE        ACCESS:          0  HIT:          0  MISS:          0  iACCESS:          0  iHIT:          0  iMISS:          0  dACCESS:          0  dHIT:          0  dMISS:          0  itACCESS:          0  itHIT:          0  itMISS:          0  dtACCESS:          0  dtHIT:          0  dtMISS:          0
cpu0_DTLB TRANSLATION  ACCESS:          0  HIT:          0  MISS:          0  iACCESS:          0  iHIT:          0  iMISS:          0  dACCESS:          0  dHIT:          0  dMISS:          0  itACCESS:          0  itHIT:          0  itMISS:          0  dtACCESS:          0  dtHIT:          0  dtMISS:          0
cpu0_DTLB PREFETCH  REQUESTED:          0  ISSUED:          0  CROSSED:          0  USEFUL:          0  USELESS:          0
cpu0_DTLB AVERAGE iMISS LATENCY: 0 cycles
cpu0_DTLB AVERAGE dMISS LATENCY: 16.3991 cycles
cpu0_DTLB AVERAGE itMISS LATENCY: 0 cycles
cpu0_DTLB AVERAGE dtMISS LATENCY: 0 cycles
cpu0_DTLB PAGE CROSSINGS (TLB HIT):         0 
cpu0_DTLB PAGE CROSSINGS (TLB MISS):         0 
cpu0_DTLB AVERAGE MISS LATENCY: 16.3991 cycles
cpu0_STLB TOTAL       ACCESS:    1498811  HIT:    1320221  MISS:     178590  iACCESS:     386213  iHIT:     321671  iMISS:      64542  dACCESS:    1112598  dHIT:     998550  dMISS:     114048  itACCESS:          0  itHIT:          0  itMISS:          0  dtACCESS:          0  dtHIT:          0  dtMISS:          0
cpu0_STLB LOAD         ACCESS:    1498811  HIT:    1320221  MISS:     178590  iACCESS:     386213  iHIT:     321671  iMISS:      64542  dACCESS:    1112598  dHIT:     998550  dMISS:     114048  itACCESS:          0  itHIT:          0  itMISS:          0  dtACCESS:          0  dtHIT:          0  dtMISS:          0
cpu0_STLB RFO          ACCESS:          0  HIT:          0  MISS:          0  iACCESS:          0  iHIT:          0  iMISS:          0  dACCESS:          0  dHIT:          0  dMISS:          0  itACCESS:          0  itHIT:          0  itMISS:          0  dtACCESS:          0  dtHIT:          0  dtMISS:          0
cpu0_STLB PREFETCH     ACCESS:          0  HIT:          0  MISS:          0  iACCESS:          0  iHIT:          0  iMISS:          0  dACCESS:          0  dHIT:          0  dMISS:          0  itACCESS:          0  itHIT:          0  itMISS:          0  dtACCESS:          0  dtHIT:          0  dtMISS:          0
cpu0_STLB WRITE        ACCESS:          0  HIT:          0  MISS:          0  iACCESS:          0  iHIT:          0  iMISS:          0  dACCESS:          0  dHIT:          0  dMISS:          0  itACCESS:          0  itHIT:          0  itMISS:          0  dtACCESS:          0  dtHIT:          0  dtMISS:          0
cpu0_STLB TRANSLATION  ACCESS:          0  HIT:          0  MISS:          0  iACCESS:          0  iHIT:          0  iMISS:          0  dACCESS:          0  dHIT:          0  dMISS:          0  itACCESS:          0  itHIT:          0  itMISS:          0  dtACCESS:          0  dtHIT:          0  dtMISS:          0
cpu0_STLB PREFETCH  REQUESTED:          0  ISSUED:          0  CROSSED:          0  USEFUL:          0  USELESS:          0
cpu0_STLB AVERAGE iMISS LATENCY: 40.2178 cycles
cpu0_STLB AVERAGE dMISS LATENCY: 118.179 cycles
cpu0_STLB AVERAGE itMISS LATENCY: 0 cycles
cpu0_STLB AVERAGE dtMISS LATENCY: 0 cycles
cpu0_STLB PAGE CROSSINGS (TLB HIT):         0 
cpu0_STLB PAGE CROSSINGS (TLB MISS):         0 
cpu0_STLB AVERAGE MISS LATENCY: 158.396 cycles
cpu0_L1D TOTAL       ACCESS:   41401726  HIT:   37986646  MISS:    3415080  iACCESS:          0  iHIT:          0  iMISS:          0  dACCESS:   41160447  dHIT:   37965108  dMISS:    3195339  itACCESS:      70171  itHIT:      10106  itMISS:      60065  dtACCESS:     171108  dtHIT:      11432  dtMISS:     159676
cpu0_L1D LOAD         ACCESS:   18913344  HIT:   17459635  MISS:    1453709  iACCESS:          0  iHIT:          0  iMISS:          0  dACCESS:   18913344  dHIT:   17459635  dMISS:    1453709  itACCESS:          0  itHIT:          0  itMISS:          0  dtACCESS:          0  dtHIT:          0  dtMISS:          0
cpu0_L1D RFO          ACCESS:          0  HIT:          0  MISS:          0  iACCESS:          0  iHIT:          0  iMISS:          0  dACCESS:          0  dHIT:          0  dMISS:          0  itACCESS:          0  itHIT:          0  itMISS:          0  dtACCESS:          0  dtHIT:          0  dtMISS:          0
cpu0_L1D PREFETCH     ACCESS:   12064920  HIT:   10753939  MISS:    1310981  iACCESS:          0  iHIT:          0  iMISS:          0  dACCESS:   12064920  dHIT:   10753939  dMISS:    1310981  itACCESS:          0  itHIT:          0  itMISS:          0  dtACCESS:          0  dtHIT:          0  dtMISS:          0
cpu0_L1D WRITE        ACCESS:   10182183  HIT:    9751534  MISS:     430649  iACCESS:          0  iHIT:          0  iMISS:          0  dACCESS:   10182183  dHIT:    9751534  dMISS:     430649  itACCESS:          0  itHIT:          0  itMISS:          0  dtACCESS:          0  dtHIT:          0  dtMISS:          0
cpu0_L1D TRANSLATION  ACCESS:     241279  HIT:      21538  MISS:     219741  iACCESS:          0  iHIT:          0  iMISS:          0  dACCESS:          0  dHIT:          0  dMISS:          0  itACCESS:      70171  itHIT:      10106  itMISS:      60065  dtACCESS:     171108  dtHIT:      11432  dtMISS:     159676
cpu0_L1D PREFETCH  REQUESTED:   18913344  ISSUED:   16865960  CROSSED:          0  USEFUL:     304068  USELESS:     695632
cpu0_L1D AVERAGE iMISS LATENCY: 0 cycles
cpu0_L1D AVERAGE dMISS LATENCY: 34.1314 cycles
cpu0_L1D AVERAGE itMISS LATENCY: 1.93929 cycles
cpu0_L1D AVERAGE dtMISS LATENCY: 5.41959 cycles
cpu0_L1D PAGE CROSSINGS (TLB HIT):         0 
cpu0_L1D PAGE CROSSINGS (TLB MISS):         0 
cpu0_L1D AVERAGE MISS LATENCY: 41.4902 cycles
cpu0_L2C TOTAL       ACCESS:    6889817  HIT:    3942372  MISS:    2947445  iACCESS:    3257141  iHIT:    2161318  iMISS:    1095823  dACCESS:    3422019  dHIT:    1747785  dMISS:    1674234  itACCESS:      60065  itHIT:      11295  itMISS:      48770  dtACCESS:     150592  dtHIT:      21974  dtMISS:     128618
cpu0_L2C LOAD         ACCESS:    1711104  HIT:    1005909  MISS:     705195  iACCESS:     788645  iHIT:     543656  iMISS:     244989  dACCESS:     922459  dHIT:     462253  dMISS:     460206  itACCESS:          0  itHIT:          0  itMISS:          0  dtACCESS:          0  dtHIT:          0  dtMISS:          0
cpu0_L2C RFO          ACCESS:     155700  HIT:      69283  MISS:      86417  iACCESS:          0  iHIT:          0  iMISS:          0  dACCESS:     155700  dHIT:      69283  dMISS:      86417  itACCESS:          0  itHIT:          0  itMISS:          0  dtACCESS:          0  dtHIT:          0  dtMISS:          0
cpu0_L2C PREFETCH     ACCESS:    4530367  HIT:    2553763  MISS:    1976604  iACCESS:    2468496  iHIT:    1617662  iMISS:     850834  dACCESS:    2061871  dHIT:     936101  dMISS:    1125770  itACCESS:          0  itHIT:          0  itMISS:          0  dtACCESS:          0  dtHIT:          0  dtMISS:          0
cpu0_L2C WRITE        ACCESS:     281989  HIT:     280148  MISS:       1841  iACCESS:          0  iHIT:          0  iMISS:          0  dACCESS:     281989  dHIT:     280148  dMISS:       1841  itACCESS:          0  itHIT:          0  itMISS:          0  dtACCESS:          0  dtHIT:          0  dtMISS:          0
cpu0_L2C TRANSLATION  ACCESS:     210657  HIT:      33269  MISS:     177388  iACCESS:          0  iHIT:          0  iMISS:          0  dACCESS:          0  dHIT:          0  dMISS:          0  itACCESS:      60065  itHIT:      11295  itMISS:      48770  dtACCESS:     150592  dtHIT:      21974  dtMISS:     128618
cpu0_L2C PREFETCH  REQUESTED:    1305885  ISSUED:    1305885  CROSSED:          0  USEFUL:     308958  USELESS:     227653
cpu0_L2C AVERAGE iMISS LATENCY: 24.6515 cycles
cpu0_L2C AVERAGE dMISS LATENCY: 46.3233 cycles
cpu0_L2C AVERAGE itMISS LATENCY: 2.04653 cycles
cpu0_L2C AVERAGE dtMISS LATENCY: 5.77212 cycles
cpu0_L2C PAGE CROSSINGS (TLB HIT):         0 
cpu0_L2C PAGE CROSSINGS (TLB MISS):         0 
cpu0_L2C AVERAGE MISS LATENCY: 78.7934 cycles
LLC TOTAL       ACCESS:    2978566  HIT:    1854456  MISS:    1124110  iACCESS:    1043193  iHIT:     686211  iMISS:     356982  dACCESS:    1757984  dHIT:    1101193  dMISS:     656791  itACCESS:      48770  itHIT:      19102  itMISS:      29668  dtACCESS:     128619  dtHIT:      47950  dtMISS:      80669
LLC LOAD         ACCESS:     703939  HIT:     452323  MISS:     251616  iACCESS:     243911  iHIT:     161092  iMISS:      82819  dACCESS:     460028  dHIT:     291231  dMISS:     168797  itACCESS:          0  itHIT:          0  itMISS:          0  dtACCESS:          0  dtHIT:          0  dtMISS:          0
LLC RFO          ACCESS:      86408  HIT:      47070  MISS:      39338  iACCESS:          0  iHIT:          0  iMISS:          0  dACCESS:      86408  dHIT:      47070  dMISS:      39338  itACCESS:          0  itHIT:          0  itMISS:          0  dtACCESS:          0  dtHIT:          0  dtMISS:          0
LLC PREFETCH     ACCESS:    1870163  HIT:    1153989  MISS:     716174  iACCESS:     799282  iHIT:     525119  iMISS:     274163  dACCESS:    1070881  dHIT:     628870  dMISS:     442011  itACCESS:          0  itHIT:          0  itMISS:          0  dtACCESS:          0  dtHIT:          0  dtMISS:          0
LLC WRITE        ACCESS:     140667  HIT:     134022  MISS:       6645  iACCESS:          0  iHIT:          0  iMISS:          0  dACCESS:     140667  dHIT:     134022  dMISS:       6645  itACCESS:          0  itHIT:          0  itMISS:          0  dtACCESS:          0  dtHIT:          0  dtMISS:          0
LLC TRANSLATION  ACCESS:     177389  HIT:      67052  MISS:     110337  iACCESS:          0  iHIT:          0  iMISS:          0  dACCESS:          0  dHIT:          0  dMISS:          0  itACCESS:      48770  itHIT:      19102  itMISS:      29668  dtACCESS:     128619  dtHIT:      47950  dtMISS:      80669
LLC PREFETCH  REQUESTED:          0  ISSUED:          0  CROSSED:          0  USEFUL:          0  USELESS:          0
LLC AVERAGE iMISS LATENCY: 46.6016 cycles
LLC AVERAGE dMISS LATENCY: 93.6018 cycles
LLC AVERAGE itMISS LATENCY: 4.51705 cycles
LLC AVERAGE dtMISS LATENCY: 12.896 cycles
LLC PAGE CROSSINGS (TLB HIT):         0 
LLC PAGE CROSSINGS (TLB MISS):         0 
LLC AVERAGE MISS LATENCY: 157.617 cycles

PageTableWalker TOTAL       ACCESS:      88985  
PageTableWalker AVERAGE LATENCY: 5.19591 cycles
PageTableWalker TOTAL LATENCY: 462358 cycles

DRAM Statistics
Channel 0
 RQ ROW_BUFFER_HIT:     297065
  ROW_BUFFER_MISS:     820321
 AVG DBUS CONGESTED CYCLE:    3.62367
 WQ ROW_BUFFER_HIT:      23147
  ROW_BUFFER_MISS:      21404  FULL:          0

