last_page:0x200000000000000
VMEM_RES_CAP:0x100000
PAGE_SIZE:4096
LOG2_PAGE_SIZE:12
LOG2_PAGE_TABLE_SIZE:9
page_table_levels:5
WARNING: physical memory size is smaller than virtual memory size
FDiP enabled with aggresivity 16

*** ChampSim Multicore Out-of-Order Simulator ***

Warmup Instructions: 50000000
Simulation Instructions: 100000000
Number of CPUs: 1
Small page size: 4096
Large page size: 2097152

CPU 0 Bimodal branch predictor
Basic BTB sets: 1024 ways: 8 indirect buffer size: 4096 RAS size: 64
Instruction page size distrubution: 0
Loading instruction page size distribution from /home/bsc/bsc018186/scratch/itp_asplos25_AE/dump/srv331_ap.pdst
Data page size distrubution: 0
Loading data page size distribution from /home/bsc/bsc018186/scratch/itp_asplos25_AE/dump/srv331_ap.pdst
cpu0_L2C IP-based stride prefetcher
cpu0_L1D next line prefetcher
CHiRPing...
cpu0_L1I next line prefetcher
Off-chip DRAM Size: 4 GiB Channels: 1 Width: 64-bit Data Rate: 3200 MT/s
Heartbeat CPU 0 instructions: 10000000 cycles: 2500217 heartbeat IPC: 3.99966 cumulative IPC: 3.99966 (Simulation time: 0 hr 0 min 38 sec) 
Heartbeat CPU 0 instructions: 20000003 cycles: 5000292 heartbeat IPC: 3.99989 cumulative IPC: 3.99977 (Simulation time: 0 hr 1 min 18 sec) 
Heartbeat CPU 0 instructions: 30000000 cycles: 7500413 heartbeat IPC: 3.99981 cumulative IPC: 3.99978 (Simulation time: 0 hr 1 min 59 sec) 
Heartbeat CPU 0 instructions: 40000003 cycles: 10000460 heartbeat IPC: 3.99993 cumulative IPC: 3.99982 (Simulation time: 0 hr 2 min 40 sec) 
Heartbeat CPU 0 instructions: 50000000 cycles: 12500482 heartbeat IPC: 3.99997 cumulative IPC: 3.99985 (Simulation time: 0 hr 3 min 22 sec) 
Warmup finished CPU 0 instructions: 50000000 cycles: 12500483 cumulative IPC: 3.99985 (Simulation time: 0 hr 3 min 22 sec) 

Warmup complete CPU 0 instructions: 50000000 cycles: 12500483 (Simulation time: 0 hr 3 min 22 sec) 

Heartbeat CPU 0 instructions: 60000001 cycles: 27146564 heartbeat IPC: 0.682777 cumulative IPC: 0.682777 (Simulation time: 0 hr 4 min 27 sec) 
Heartbeat CPU 0 instructions: 70000002 cycles: 41181736 heartbeat IPC: 0.712496 cumulative IPC: 0.69732 (Simulation time: 0 hr 5 min 31 sec) 
Heartbeat CPU 0 instructions: 80000001 cycles: 55904886 heartbeat IPC: 0.679203 cumulative IPC: 0.691175 (Simulation time: 0 hr 6 min 37 sec) 
Heartbeat CPU 0 instructions: 90000004 cycles: 70419961 heartbeat IPC: 0.68894 cumulative IPC: 0.690615 (Simulation time: 0 hr 7 min 42 sec) 
Heartbeat CPU 0 instructions: 100000003 cycles: 85375974 heartbeat IPC: 0.668628 cumulative IPC: 0.686102 (Simulation time: 0 hr 8 min 48 sec) 
*** Reached end of trace: /gpfs/projects/bsc18/MN4/bsc18/romol/ChampSim/traces/qualcomm_srv/srv331_ap.champsimtrace.xz
Heartbeat CPU 0 instructions: 110000003 cycles: 99515466 heartbeat IPC: 0.707239 cumulative IPC: 0.689537 (Simulation time: 0 hr 9 min 52 sec) 
Heartbeat CPU 0 instructions: 120000004 cycles: 114787498 heartbeat IPC: 0.654792 cumulative IPC: 0.684349 (Simulation time: 0 hr 10 min 59 sec) 
Heartbeat CPU 0 instructions: 130000003 cycles: 129086524 heartbeat IPC: 0.699349 cumulative IPC: 0.686189 (Simulation time: 0 hr 12 min 4 sec) 
Heartbeat CPU 0 instructions: 140000004 cycles: 143579291 heartbeat IPC: 0.69 cumulative IPC: 0.68661 (Simulation time: 0 hr 13 min 10 sec) 
Heartbeat CPU 0 instructions: 150000000 cycles: 157602223 heartbeat IPC: 0.713118 cumulative IPC: 0.689172 (Simulation time: 0 hr 14 min 14 sec) 
Simulation finished CPU 0 instructions: 100000000 cycles: 145101741 cumulative IPC: 0.689172 (Simulation time: 0 hr 14 min 14 sec) 

Simulation complete CPU 0 instructions: 100000000 cycles: 145101741 (Simulation time: 0 hr 14 min 14 sec) 


ChampSim completed all CPUs

Saving instructions large page distribution to /home/bsc/bsc018186/scratch/itp_asplos25_AE/dump/srv331_ap.pdst...
Saving data large page distribution to /home/bsc/bsc018186/scratch/itp_asplos25_AE/dump/srv331_ap.pdst...
=== Simulation ===
CPU 0 runs /gpfs/projects/bsc18/MN4/bsc18/romol/ChampSim/traces/qualcomm_srv/srv331_ap.champsimtrace.xz

Region of Interest Statistics

CPU 0 cumulative IPC: 0.689172 instructions: 100000000 cycles: 145101741
CPU 0 Branch Prediction Accuracy: 82.5235% MPKI: 31.3422 Average ROB Occupancy at Mispredict: 12.7957
Branch type MPKI
BRANCH_DIRECT_JUMP: 1.05916
BRANCH_INDIRECT: 16.2178
BRANCH_CONDITIONAL: 10.2351
BRANCH_DIRECT_CALL: 1.92154
BRANCH_INDIRECT_CALL: 0.525541
BRANCH_RETURN: 1.38308

Instructions large pages: 0
Instructions small pages: 10465
Large page distribution for instructions: 0%

Data large pages: 0
Data small pages: 9462
Large page distribution for data: 0%

cpu0_L1I TOTAL       ACCESS:   35659599  HIT:   27221111  MISS:    8438488  iACCESS:   35659599  iHIT:   27221111  iMISS:    8438488  dACCESS:          0  dHIT:          0  dMISS:          0  itACCESS:          0  itHIT:          0  itMISS:          0  dtACCESS:          0  dtHIT:          0  dtMISS:          0
cpu0_L1I LOAD         ACCESS:   10434570  HIT:    8076361  MISS:    2358209  iACCESS:   10434570  iHIT:    8076361  iMISS:    2358209  dACCESS:          0  dHIT:          0  dMISS:          0  itACCESS:          0  itHIT:          0  itMISS:          0  dtACCESS:          0  dtHIT:          0  dtMISS:          0
cpu0_L1I RFO          ACCESS:          0  HIT:          0  MISS:          0  iACCESS:          0  iHIT:          0  iMISS:          0  dACCESS:          0  dHIT:          0  dMISS:          0  itACCESS:          0  itHIT:          0  itMISS:          0  dtACCESS:          0  dtHIT:          0  dtMISS:          0
cpu0_L1I PREFETCH     ACCESS:   25225029  HIT:   19144750  MISS:    6080279  iACCESS:   25225029  iHIT:   19144750  iMISS:    6080279  dACCESS:          0  dHIT:          0  dMISS:          0  itACCESS:          0  itHIT:          0  itMISS:          0  dtACCESS:          0  dtHIT:          0  dtMISS:          0
cpu0_L1I WRITE        ACCESS:          0  HIT:          0  MISS:          0  iACCESS:          0  iHIT:          0  iMISS:          0  dACCESS:          0  dHIT:          0  dMISS:          0  itACCESS:          0  itHIT:          0  itMISS:          0  dtACCESS:          0  dtHIT:          0  dtMISS:          0
cpu0_L1I TRANSLATION  ACCESS:          0  HIT:          0  MISS:          0  iACCESS:          0  iHIT:          0  iMISS:          0  dACCESS:          0  dHIT:          0  dMISS:          0  itACCESS:          0  itHIT:          0  itMISS:          0  dtACCESS:          0  dtHIT:          0  dtMISS:          0
cpu0_L1I PREFETCH  REQUESTED:   27533155  ISSUED:   27532146  CROSSED:          0  USEFUL:    1953601  USELESS:     632897
cpu0_L1I AVERAGE iMISS LATENCY: 13.5909 cycles
cpu0_L1I AVERAGE dMISS LATENCY: 0 cycles
cpu0_L1I AVERAGE itMISS LATENCY: 0 cycles
cpu0_L1I AVERAGE dtMISS LATENCY: 0 cycles
cpu0_L1I PAGE CROSSINGS (TLB HIT):         0 
cpu0_L1I PAGE CROSSINGS (TLB MISS):         0 
cpu0_L1I AVERAGE MISS LATENCY: 13.5909 cycles
cpu0_ITLB TOTAL       ACCESS:   29527327  HIT:   27606190  MISS:    1921137  iACCESS:   29527327  iHIT:   27606190  iMISS:    1921137  dACCESS:          0  dHIT:          0  dMISS:          0  itACCESS:          0  itHIT:          0  itMISS:          0  dtACCESS:          0  dtHIT:          0  dtMISS:          0
cpu0_ITLB LOAD         ACCESS:   29527327  HIT:   27606190  MISS:    1921137  iACCESS:   29527327  iHIT:   27606190  iMISS:    1921137  dACCESS:          0  dHIT:          0  dMISS:          0  itACCESS:          0  itHIT:          0  itMISS:          0  dtACCESS:          0  dtHIT:          0  dtMISS:          0
cpu0_ITLB RFO          ACCESS:          0  HIT:          0  MISS:          0  iACCESS:          0  iHIT:          0  iMISS:          0  dACCESS:          0  dHIT:          0  dMISS:          0  itACCESS:          0  itHIT:          0  itMISS:          0  dtACCESS:          0  dtHIT:          0  dtMISS:          0
cpu0_ITLB PREFETCH     ACCESS:          0  HIT:          0  MISS:          0  iACCESS:          0  iHIT:          0  iMISS:          0  dACCESS:          0  dHIT:          0  dMISS:          0  itACCESS:          0  itHIT:          0  itMISS:          0  dtACCESS:          0  dtHIT:          0  dtMISS:          0
cpu0_ITLB WRITE        ACCESS:          0  HIT:          0  MISS:          0  iACCESS:          0  iHIT:          0  iMISS:          0  dACCESS:          0  dHIT:          0  dMISS:          0  itACCESS:          0  itHIT:          0  itMISS:          0  dtACCESS:          0  dtHIT:          0  dtMISS:          0
cpu0_ITLB TRANSLATION  ACCESS:          0  HIT:          0  MISS:          0  iACCESS:          0  iHIT:          0  iMISS:          0  dACCESS:          0  dHIT:          0  dMISS:          0  itACCESS:          0  itHIT:          0  itMISS:          0  dtACCESS:          0  dtHIT:          0  dtMISS:          0
cpu0_ITLB PREFETCH  REQUESTED:          0  ISSUED:          0  CROSSED:          0  USEFUL:     319184  USELESS:      63617
cpu0_ITLB AVERAGE iMISS LATENCY: 3.15428 cycles
cpu0_ITLB AVERAGE dMISS LATENCY: 0 cycles
cpu0_ITLB AVERAGE itMISS LATENCY: 0 cycles
cpu0_ITLB AVERAGE dtMISS LATENCY: 0 cycles
cpu0_ITLB PAGE CROSSINGS (TLB HIT):         0 
cpu0_ITLB PAGE CROSSINGS (TLB MISS):         0 
cpu0_ITLB AVERAGE MISS LATENCY: 3.15428 cycles
cpu0_DTLB TOTAL       ACCESS:   27926163  HIT:   26077665  MISS:    1848498  iACCESS:          0  iHIT:          0  iMISS:          0  dACCESS:   27926163  dHIT:   26077665  dMISS:    1848498  itACCESS:          0  itHIT:          0  itMISS:          0  dtACCESS:          0  dtHIT:          0  dtMISS:          0
cpu0_DTLB LOAD         ACCESS:   27926163  HIT:   26077665  MISS:    1848498  iACCESS:          0  iHIT:          0  iMISS:          0  dACCESS:   27926163  dHIT:   26077665  dMISS:    1848498  itACCESS:          0  itHIT:          0  itMISS:          0  dtACCESS:          0  dtHIT:          0  dtMISS:          0
cpu0_DTLB RFO          ACCESS:          0  HIT:          0  MISS:          0  iACCESS:          0  iHIT:          0  iMISS:          0  dACCESS:          0  dHIT:          0  dMISS:          0  itACCESS:          0  itHIT:          0  itMISS:          0  dtACCESS:          0  dtHIT:          0  dtMISS:          0
cpu0_DTLB PREFETCH     ACCESS:          0  HIT:          0  MISS:          0  iACCESS:          0  iHIT:          0  iMISS:          0  dACCESS:          0  dHIT:          0  dMISS:          0  itACCESS:          0  itHIT:          0  itMISS:          0  dtACCESS:          0  dtHIT:          0  dtMISS:          0
cpu0_DTLB WRITE        ACCESS:          0  HIT:          0  MISS:          0  iACCESS:          0  iHIT:          0  iMISS:          0  dACCESS:          0  dHIT:          0  dMISS:          0  itACCESS:          0  itHIT:          0  itMISS:          0  dtACCESS:          0  dtHIT:          0  dtMISS:          0
cpu0_DTLB TRANSLATION  ACCESS:          0  HIT:          0  MISS:          0  iACCESS:          0  iHIT:          0  iMISS:          0  dACCESS:          0  dHIT:          0  dMISS:          0  itACCESS:          0  itHIT:          0  itMISS:          0  dtACCESS:          0  dtHIT:          0  dtMISS:          0
cpu0_DTLB PREFETCH  REQUESTED:          0  ISSUED:          0  CROSSED:          0  USEFUL:          0  USELESS:          0
cpu0_DTLB AVERAGE iMISS LATENCY: 0 cycles
cpu0_DTLB AVERAGE dMISS LATENCY: 10.9089 cycles
cpu0_DTLB AVERAGE itMISS LATENCY: 0 cycles
cpu0_DTLB AVERAGE dtMISS LATENCY: 0 cycles
cpu0_DTLB PAGE CROSSINGS (TLB HIT):         0 
cpu0_DTLB PAGE CROSSINGS (TLB MISS):         0 
cpu0_DTLB AVERAGE MISS LATENCY: 10.9089 cycles
cpu0_STLB TOTAL       ACCESS:    1543046  HIT:    1372028  MISS:     171018  iACCESS:     382820  iHIT:     323099  iMISS:      59721  dACCESS:    1160226  dHIT:    1048929  dMISS:     111297  itACCESS:          0  itHIT:          0  itMISS:          0  dtACCESS:          0  dtHIT:          0  dtMISS:          0
cpu0_STLB LOAD         ACCESS:    1543046  HIT:    1372028  MISS:     171018  iACCESS:     382820  iHIT:     323099  iMISS:      59721  dACCESS:    1160226  dHIT:    1048929  dMISS:     111297  itACCESS:          0  itHIT:          0  itMISS:          0  dtACCESS:          0  dtHIT:          0  dtMISS:          0
cpu0_STLB RFO          ACCESS:          0  HIT:          0  MISS:          0  iACCESS:          0  iHIT:          0  iMISS:          0  dACCESS:          0  dHIT:          0  dMISS:          0  itACCESS:          0  itHIT:          0  itMISS:          0  dtACCESS:          0  dtHIT:          0  dtMISS:          0
cpu0_STLB PREFETCH     ACCESS:          0  HIT:          0  MISS:          0  iACCESS:          0  iHIT:          0  iMISS:          0  dACCESS:          0  dHIT:          0  dMISS:          0  itACCESS:          0  itHIT:          0  itMISS:          0  dtACCESS:          0  dtHIT:          0  dtMISS:          0
cpu0_STLB WRITE        ACCESS:          0  HIT:          0  MISS:          0  iACCESS:          0  iHIT:          0  iMISS:          0  dACCESS:          0  dHIT:          0  dMISS:          0  itACCESS:          0  itHIT:          0  itMISS:          0  dtACCESS:          0  dtHIT:          0  dtMISS:          0
cpu0_STLB TRANSLATION  ACCESS:          0  HIT:          0  MISS:          0  iACCESS:          0  iHIT:          0  iMISS:          0  dACCESS:          0  dHIT:          0  dMISS:          0  itACCESS:          0  itHIT:          0  itMISS:          0  dtACCESS:          0  dtHIT:          0  dtMISS:          0
cpu0_STLB PREFETCH  REQUESTED:          0  ISSUED:          0  CROSSED:          0  USEFUL:          0  USELESS:          0
cpu0_STLB AVERAGE iMISS LATENCY: 17.765 cycles
cpu0_STLB AVERAGE dMISS LATENCY: 63.7807 cycles
cpu0_STLB AVERAGE itMISS LATENCY: 0 cycles
cpu0_STLB AVERAGE dtMISS LATENCY: 0 cycles
cpu0_STLB PAGE CROSSINGS (TLB HIT):         0 
cpu0_STLB PAGE CROSSINGS (TLB MISS):         0 
cpu0_STLB AVERAGE MISS LATENCY: 81.5457 cycles
cpu0_L1D TOTAL       ACCESS:   41685433  HIT:   38252336  MISS:    3433097  iACCESS:          0  iHIT:          0  iMISS:          0  dACCESS:   41455617  dHIT:   38231846  dMISS:    3223771  itACCESS:      64446  itHIT:       9436  itMISS:      55010  dtACCESS:     165370  dtHIT:      11054  dtMISS:     154316
cpu0_L1D LOAD         ACCESS:   19100442  HIT:   17626872  MISS:    1473570  iACCESS:          0  iHIT:          0  iMISS:          0  dACCESS:   19100442  dHIT:   17626872  dMISS:    1473570  itACCESS:          0  itHIT:          0  itMISS:          0  dtACCESS:          0  dtHIT:          0  dtMISS:          0
cpu0_L1D RFO          ACCESS:          0  HIT:          0  MISS:          0  iACCESS:          0  iHIT:          0  iMISS:          0  dACCESS:          0  dHIT:          0  dMISS:          0  itACCESS:          0  itHIT:          0  itMISS:          0  dtACCESS:          0  dtHIT:          0  dtMISS:          0
cpu0_L1D PREFETCH     ACCESS:   12157152  HIT:   10828096  MISS:    1329056  iACCESS:          0  iHIT:          0  iMISS:          0  dACCESS:   12157152  dHIT:   10828096  dMISS:    1329056  itACCESS:          0  itHIT:          0  itMISS:          0  dtACCESS:          0  dtHIT:          0  dtMISS:          0
cpu0_L1D WRITE        ACCESS:   10198023  HIT:    9776878  MISS:     421145  iACCESS:          0  iHIT:          0  iMISS:          0  dACCESS:   10198023  dHIT:    9776878  dMISS:     421145  itACCESS:          0  itHIT:          0  itMISS:          0  dtACCESS:          0  dtHIT:          0  dtMISS:          0
cpu0_L1D TRANSLATION  ACCESS:     229816  HIT:      20490  MISS:     209326  iACCESS:          0  iHIT:          0  iMISS:          0  dACCESS:          0  dHIT:          0  dMISS:          0  itACCESS:      64446  itHIT:       9436  itMISS:      55010  dtACCESS:     165370  dtHIT:      11054  dtMISS:     154316
cpu0_L1D PREFETCH  REQUESTED:   19100442  ISSUED:   16961895  CROSSED:          0  USEFUL:     309928  USELESS:     701628
cpu0_L1D AVERAGE iMISS LATENCY: 0 cycles
cpu0_L1D AVERAGE dMISS LATENCY: 34.52 cycles
cpu0_L1D AVERAGE itMISS LATENCY: 0.736189 cycles
cpu0_L1D AVERAGE dtMISS LATENCY: 2.49286 cycles
cpu0_L1D PAGE CROSSINGS (TLB HIT):         0 
cpu0_L1D PAGE CROSSINGS (TLB MISS):         0 
cpu0_L1D AVERAGE MISS LATENCY: 37.749 cycles
cpu0_L2C TOTAL       ACCESS:    7039271  HIT:    1686182  MISS:    5353089  iACCESS:    3325935  iHIT:     863015  iMISS:    2462920  dACCESS:    3512343  dHIT:     705137  dMISS:    2807206  itACCESS:      55010  itHIT:      39089  itMISS:      15921  dtACCESS:     145983  dtHIT:      78941  dtMISS:      67042
cpu0_L2C LOAD         ACCESS:    1705258  HIT:     295699  MISS:    1409559  iACCESS:     778252  iHIT:     147406  iMISS:     630846  dACCESS:     927006  dHIT:     148293  dMISS:     778713  itACCESS:          0  itHIT:          0  itMISS:          0  dtACCESS:          0  dtHIT:          0  dtMISS:          0
cpu0_L2C RFO          ACCESS:     159453  HIT:      53154  MISS:     106299  iACCESS:          0  iHIT:          0  iMISS:          0  dACCESS:     159453  dHIT:      53154  dMISS:     106299  itACCESS:          0  itHIT:          0  itMISS:          0  dtACCESS:          0  dtHIT:          0  dtMISS:          0
cpu0_L2C PREFETCH     ACCESS:    4691458  HIT:    1081945  MISS:    3609513  iACCESS:    2547683  iHIT:     715609  iMISS:    1832074  dACCESS:    2143775  dHIT:     366336  dMISS:    1777439  itACCESS:          0  itHIT:          0  itMISS:          0  dtACCESS:          0  dtHIT:          0  dtMISS:          0
cpu0_L2C WRITE        ACCESS:     282109  HIT:     137354  MISS:     144755  iACCESS:          0  iHIT:          0  iMISS:          0  dACCESS:     282109  dHIT:     137354  dMISS:     144755  itACCESS:          0  itHIT:          0  itMISS:          0  dtACCESS:          0  dtHIT:          0  dtMISS:          0
cpu0_L2C TRANSLATION  ACCESS:     200993  HIT:     118030  MISS:      82963  iACCESS:          0  iHIT:          0  iMISS:          0  dACCESS:          0  dHIT:          0  dMISS:          0  itACCESS:      55010  itHIT:      39089  itMISS:      15921  dtACCESS:     145983  dtHIT:      78941  dtMISS:      67042
cpu0_L2C PREFETCH  REQUESTED:    1394583  ISSUED:    1394583  CROSSED:          0  USEFUL:     407855  USELESS:     385241
cpu0_L2C AVERAGE iMISS LATENCY: 15.5681 cycles
cpu0_L2C AVERAGE dMISS LATENCY: 26.272 cycles
cpu0_L2C AVERAGE itMISS LATENCY: 0.376435 cycles
cpu0_L2C AVERAGE dtMISS LATENCY: 1.33913 cycles
cpu0_L2C PAGE CROSSINGS (TLB HIT):         0 
cpu0_L2C PAGE CROSSINGS (TLB MISS):         0 
cpu0_L2C AVERAGE MISS LATENCY: 43.5556 cycles
LLC TOTAL       ACCESS:    5225852  HIT:    4352352  MISS:     873500  iACCESS:    2403176  iHIT:    2147437  iMISS:     255739  dACCESS:    2739713  dHIT:    2165025  dMISS:     574688  itACCESS:      15921  itHIT:       6027  itMISS:       9894  dtACCESS:      67042  dtHIT:      33863  dtMISS:      33179
LLC LOAD         ACCESS:    1407756  HIT:    1217709  MISS:     190047  iACCESS:     629386  iHIT:     574924  iMISS:      54462  dACCESS:     778370  dHIT:     642785  dMISS:     135585  itACCESS:          0  itHIT:          0  itMISS:          0  dtACCESS:          0  dtHIT:          0  dtMISS:          0
LLC RFO          ACCESS:     106298  HIT:      68228  MISS:      38070  iACCESS:          0  iHIT:          0  iMISS:          0  dACCESS:     106298  dHIT:      68228  dMISS:      38070  itACCESS:          0  itHIT:          0  itMISS:          0  dtACCESS:          0  dtHIT:          0  dtMISS:          0
LLC PREFETCH     ACCESS:    3492710  HIT:    2898945  MISS:     593765  iACCESS:    1773790  iHIT:    1572513  iMISS:     201277  dACCESS:    1718920  dHIT:    1326432  dMISS:     392488  itACCESS:          0  itHIT:          0  itMISS:          0  dtACCESS:          0  dtHIT:          0  dtMISS:          0
LLC WRITE        ACCESS:     136125  HIT:     127580  MISS:       8545  iACCESS:          0  iHIT:          0  iMISS:          0  dACCESS:     136125  dHIT:     127580  dMISS:       8545  itACCESS:          0  itHIT:          0  itMISS:          0  dtACCESS:          0  dtHIT:          0  dtMISS:          0
LLC TRANSLATION  ACCESS:      82963  HIT:      39890  MISS:      43073  iACCESS:          0  iHIT:          0  iMISS:          0  dACCESS:          0  dHIT:          0  dMISS:          0  itACCESS:      15921  itHIT:       6027  itMISS:       9894  dtACCESS:      67042  dtHIT:      33863  dtMISS:      33179
LLC PREFETCH  REQUESTED:          0  ISSUED:          0  CROSSED:          0  USEFUL:          0  USELESS:          0
LLC AVERAGE iMISS LATENCY: 42.3144 cycles
LLC AVERAGE dMISS LATENCY: 103.374 cycles
LLC AVERAGE itMISS LATENCY: 1.95001 cycles
LLC AVERAGE dtMISS LATENCY: 6.71168 cycles
LLC PAGE CROSSINGS (TLB HIT):         0 
LLC PAGE CROSSINGS (TLB MISS):         0 
LLC AVERAGE MISS LATENCY: 154.35 cycles

PageTableWalker TOTAL       ACCESS:      86755  
PageTableWalker AVERAGE LATENCY: 4.50342 cycles
PageTableWalker TOTAL LATENCY: 390694 cycles

DRAM Statistics
Channel 0
 RQ ROW_BUFFER_HIT:     247859
  ROW_BUFFER_MISS:     617062
 AVG DBUS CONGESTED CYCLE:    3.62813
 WQ ROW_BUFFER_HIT:      16235
  ROW_BUFFER_MISS:      21159  FULL:          0

