last_page:0x200000000000000
VMEM_RES_CAP:0x100000
PAGE_SIZE:4096
LOG2_PAGE_SIZE:12
LOG2_PAGE_TABLE_SIZE:9
page_table_levels:5
WARNING: physical memory size is smaller than virtual memory size
FDiP enabled with aggresivity 16

*** ChampSim Multicore Out-of-Order Simulator ***

Warmup Instructions: 50000000
Simulation Instructions: 100000000
Number of CPUs: 1
Small page size: 4096
Large page size: 2097152

CPU 0 Bimodal branch predictor
Basic BTB sets: 1024 ways: 8 indirect buffer size: 4096 RAS size: 64
Instruction page size distrubution: 0
Loading instruction page size distribution from /home/bsc/bsc018186/scratch/itp_asplos25_AE/dump/srv346_ap.pdst
Data page size distrubution: 0
Loading data page size distribution from /home/bsc/bsc018186/scratch/itp_asplos25_AE/dump/srv346_ap.pdst
cpu0_L2C IP-based stride prefetcher
cpu0_L1D next line prefetcher
CHiRPing...
cpu0_L1I next line prefetcher
Off-chip DRAM Size: 4 GiB Channels: 1 Width: 64-bit Data Rate: 3200 MT/s
Heartbeat CPU 0 instructions: 10000000 cycles: 2500251 heartbeat IPC: 3.9996 cumulative IPC: 3.9996 (Simulation time: 0 hr 0 min 38 sec) 
Heartbeat CPU 0 instructions: 20000002 cycles: 5000316 heartbeat IPC: 3.9999 cumulative IPC: 3.99975 (Simulation time: 0 hr 1 min 18 sec) 
Heartbeat CPU 0 instructions: 30000001 cycles: 7500318 heartbeat IPC: 4 cumulative IPC: 3.99984 (Simulation time: 0 hr 1 min 59 sec) 
Heartbeat CPU 0 instructions: 40000003 cycles: 10000404 heartbeat IPC: 3.99987 cumulative IPC: 3.99984 (Simulation time: 0 hr 2 min 41 sec) 
Heartbeat CPU 0 instructions: 50000000 cycles: 12500421 heartbeat IPC: 3.99998 cumulative IPC: 3.99987 (Simulation time: 0 hr 3 min 23 sec) 
Warmup finished CPU 0 instructions: 50000000 cycles: 12500422 cumulative IPC: 3.99987 (Simulation time: 0 hr 3 min 23 sec) 

Warmup complete CPU 0 instructions: 50000000 cycles: 12500422 (Simulation time: 0 hr 3 min 23 sec) 

Heartbeat CPU 0 instructions: 60000001 cycles: 26987574 heartbeat IPC: 0.690267 cumulative IPC: 0.690267 (Simulation time: 0 hr 4 min 30 sec) 
Heartbeat CPU 0 instructions: 70000004 cycles: 40948004 heartbeat IPC: 0.716311 cumulative IPC: 0.703048 (Simulation time: 0 hr 5 min 36 sec) 
Heartbeat CPU 0 instructions: 80000001 cycles: 54938208 heartbeat IPC: 0.714786 cumulative IPC: 0.706918 (Simulation time: 0 hr 6 min 42 sec) 
Heartbeat CPU 0 instructions: 90000001 cycles: 69123427 heartbeat IPC: 0.70496 cumulative IPC: 0.706427 (Simulation time: 0 hr 7 min 47 sec) 
Heartbeat CPU 0 instructions: 100000002 cycles: 82328252 heartbeat IPC: 0.7573 cumulative IPC: 0.716047 (Simulation time: 0 hr 8 min 51 sec) 
*** Reached end of trace: /gpfs/projects/bsc18/MN4/bsc18/romol/ChampSim/traces/qualcomm_srv/srv346_ap.champsimtrace.xz
Heartbeat CPU 0 instructions: 110000004 cycles: 96289408 heartbeat IPC: 0.716274 cumulative IPC: 0.716085 (Simulation time: 0 hr 9 min 56 sec) 
Heartbeat CPU 0 instructions: 120000004 cycles: 110021641 heartbeat IPC: 0.728214 cumulative IPC: 0.717793 (Simulation time: 0 hr 11 min 0 sec) 
Heartbeat CPU 0 instructions: 130000000 cycles: 123510967 heartbeat IPC: 0.741327 cumulative IPC: 0.720653 (Simulation time: 0 hr 12 min 5 sec) 
Heartbeat CPU 0 instructions: 140000001 cycles: 137564288 heartbeat IPC: 0.711576 cumulative IPC: 0.719633 (Simulation time: 0 hr 13 min 11 sec) 
Heartbeat CPU 0 instructions: 150000001 cycles: 150915844 heartbeat IPC: 0.748977 cumulative IPC: 0.722463 (Simulation time: 0 hr 14 min 16 sec) 
Simulation finished CPU 0 instructions: 100000001 cycles: 138415423 cumulative IPC: 0.722463 (Simulation time: 0 hr 14 min 16 sec) 

Simulation complete CPU 0 instructions: 100000001 cycles: 138415423 (Simulation time: 0 hr 14 min 16 sec) 


ChampSim completed all CPUs

Saving instructions large page distribution to /home/bsc/bsc018186/scratch/itp_asplos25_AE/dump/srv346_ap.pdst...
Saving data large page distribution to /home/bsc/bsc018186/scratch/itp_asplos25_AE/dump/srv346_ap.pdst...
=== Simulation ===
CPU 0 runs /gpfs/projects/bsc18/MN4/bsc18/romol/ChampSim/traces/qualcomm_srv/srv346_ap.champsimtrace.xz

Region of Interest Statistics

CPU 0 cumulative IPC: 0.722463 instructions: 100000001 cycles: 138415423
CPU 0 Branch Prediction Accuracy: 83.3954% MPKI: 29.7758 Average ROB Occupancy at Mispredict: 12.205
Branch type MPKI
BRANCH_DIRECT_JUMP: 0.95235
BRANCH_INDIRECT: 15.4252
BRANCH_CONDITIONAL: 9.75543
BRANCH_DIRECT_CALL: 1.82251
BRANCH_INDIRECT_CALL: 0.49756
BRANCH_RETURN: 1.32277

Instructions large pages: 0
Instructions small pages: 9805
Large page distribution for instructions: 0%

Data large pages: 0
Data small pages: 8937
Large page distribution for data: 0%

cpu0_L1I TOTAL       ACCESS:   35031023  HIT:   26544564  MISS:    8486459  iACCESS:   35031023  iHIT:   26544564  iMISS:    8486459  dACCESS:          0  dHIT:          0  dMISS:          0  itACCESS:          0  itHIT:          0  itMISS:          0  dtACCESS:          0  dtHIT:          0  dtMISS:          0
cpu0_L1I LOAD         ACCESS:   10211400  HIT:    7836175  MISS:    2375225  iACCESS:   10211400  iHIT:    7836175  iMISS:    2375225  dACCESS:          0  dHIT:          0  dMISS:          0  itACCESS:          0  itHIT:          0  itMISS:          0  dtACCESS:          0  dtHIT:          0  dtMISS:          0
cpu0_L1I RFO          ACCESS:          0  HIT:          0  MISS:          0  iACCESS:          0  iHIT:          0  iMISS:          0  dACCESS:          0  dHIT:          0  dMISS:          0  itACCESS:          0  itHIT:          0  itMISS:          0  dtACCESS:          0  dtHIT:          0  dtMISS:          0
cpu0_L1I PREFETCH     ACCESS:   24819623  HIT:   18708389  MISS:    6111234  iACCESS:   24819623  iHIT:   18708389  iMISS:    6111234  dACCESS:          0  dHIT:          0  dMISS:          0  itACCESS:          0  itHIT:          0  itMISS:          0  dtACCESS:          0  dtHIT:          0  dtMISS:          0
cpu0_L1I WRITE        ACCESS:          0  HIT:          0  MISS:          0  iACCESS:          0  iHIT:          0  iMISS:          0  dACCESS:          0  dHIT:          0  dMISS:          0  itACCESS:          0  itHIT:          0  itMISS:          0  dtACCESS:          0  dtHIT:          0  dtMISS:          0
cpu0_L1I TRANSLATION  ACCESS:          0  HIT:          0  MISS:          0  iACCESS:          0  iHIT:          0  iMISS:          0  dACCESS:          0  dHIT:          0  dMISS:          0  itACCESS:          0  itHIT:          0  itMISS:          0  dtACCESS:          0  dtHIT:          0  dtMISS:          0
cpu0_L1I PREFETCH  REQUESTED:   27073854  ISSUED:   27071146  CROSSED:          0  USEFUL:    1932729  USELESS:     633036
cpu0_L1I AVERAGE iMISS LATENCY: 13.1395 cycles
cpu0_L1I AVERAGE dMISS LATENCY: 0 cycles
cpu0_L1I AVERAGE itMISS LATENCY: 0 cycles
cpu0_L1I AVERAGE dtMISS LATENCY: 0 cycles
cpu0_L1I PAGE CROSSINGS (TLB HIT):         0 
cpu0_L1I PAGE CROSSINGS (TLB MISS):         0 
cpu0_L1I AVERAGE MISS LATENCY: 13.1395 cycles
cpu0_ITLB TOTAL       ACCESS:   28997256  HIT:   27016231  MISS:    1981025  iACCESS:   28997256  iHIT:   27016231  iMISS:    1981025  dACCESS:          0  dHIT:          0  dMISS:          0  itACCESS:          0  itHIT:          0  itMISS:          0  dtACCESS:          0  dtHIT:          0  dtMISS:          0
cpu0_ITLB LOAD         ACCESS:   28997256  HIT:   27016231  MISS:    1981025  iACCESS:   28997256  iHIT:   27016231  iMISS:    1981025  dACCESS:          0  dHIT:          0  dMISS:          0  itACCESS:          0  itHIT:          0  itMISS:          0  dtACCESS:          0  dtHIT:          0  dtMISS:          0
cpu0_ITLB RFO          ACCESS:          0  HIT:          0  MISS:          0  iACCESS:          0  iHIT:          0  iMISS:          0  dACCESS:          0  dHIT:          0  dMISS:          0  itACCESS:          0  itHIT:          0  itMISS:          0  dtACCESS:          0  dtHIT:          0  dtMISS:          0
cpu0_ITLB PREFETCH     ACCESS:          0  HIT:          0  MISS:          0  iACCESS:          0  iHIT:          0  iMISS:          0  dACCESS:          0  dHIT:          0  dMISS:          0  itACCESS:          0  itHIT:          0  itMISS:          0  dtACCESS:          0  dtHIT:          0  dtMISS:          0
cpu0_ITLB WRITE        ACCESS:          0  HIT:          0  MISS:          0  iACCESS:          0  iHIT:          0  iMISS:          0  dACCESS:          0  dHIT:          0  dMISS:          0  itACCESS:          0  itHIT:          0  itMISS:          0  dtACCESS:          0  dtHIT:          0  dtMISS:          0
cpu0_ITLB TRANSLATION  ACCESS:          0  HIT:          0  MISS:          0  iACCESS:          0  iHIT:          0  iMISS:          0  dACCESS:          0  dHIT:          0  dMISS:          0  itACCESS:          0  itHIT:          0  itMISS:          0  dtACCESS:          0  dtHIT:          0  dtMISS:          0
cpu0_ITLB PREFETCH  REQUESTED:          0  ISSUED:          0  CROSSED:          0  USEFUL:     324992  USELESS:      62460
cpu0_ITLB AVERAGE iMISS LATENCY: 2.88568 cycles
cpu0_ITLB AVERAGE dMISS LATENCY: 0 cycles
cpu0_ITLB AVERAGE itMISS LATENCY: 0 cycles
cpu0_ITLB AVERAGE dtMISS LATENCY: 0 cycles
cpu0_ITLB PAGE CROSSINGS (TLB HIT):         0 
cpu0_ITLB PAGE CROSSINGS (TLB MISS):         0 
cpu0_ITLB AVERAGE MISS LATENCY: 2.88568 cycles
cpu0_DTLB TOTAL       ACCESS:   27689883  HIT:   25866193  MISS:    1823690  iACCESS:          0  iHIT:          0  iMISS:          0  dACCESS:   27689883  dHIT:   25866193  dMISS:    1823690  itACCESS:          0  itHIT:          0  itMISS:          0  dtACCESS:          0  dtHIT:          0  dtMISS:          0
cpu0_DTLB LOAD         ACCESS:   27689883  HIT:   25866193  MISS:    1823690  iACCESS:          0  iHIT:          0  iMISS:          0  dACCESS:   27689883  dHIT:   25866193  dMISS:    1823690  itACCESS:          0  itHIT:          0  itMISS:          0  dtACCESS:          0  dtHIT:          0  dtMISS:          0
cpu0_DTLB RFO          ACCESS:          0  HIT:          0  MISS:          0  iACCESS:          0  iHIT:          0  iMISS:          0  dACCESS:          0  dHIT:          0  dMISS:          0  itACCESS:          0  itHIT:          0  itMISS:          0  dtACCESS:          0  dtHIT:          0  dtMISS:          0
cpu0_DTLB PREFETCH     ACCESS:          0  HIT:          0  MISS:          0  iACCESS:          0  iHIT:          0  iMISS:          0  dACCESS:          0  dHIT:          0  dMISS:          0  itACCESS:          0  itHIT:          0  itMISS:          0  dtACCESS:          0  dtHIT:          0  dtMISS:          0
cpu0_DTLB WRITE        ACCESS:          0  HIT:          0  MISS:          0  iACCESS:          0  iHIT:          0  iMISS:          0  dACCESS:          0  dHIT:          0  dMISS:          0  itACCESS:          0  itHIT:          0  itMISS:          0  dtACCESS:          0  dtHIT:          0  dtMISS:          0
cpu0_DTLB TRANSLATION  ACCESS:          0  HIT:          0  MISS:          0  iACCESS:          0  iHIT:          0  iMISS:          0  dACCESS:          0  dHIT:          0  dMISS:          0  itACCESS:          0  itHIT:          0  itMISS:          0  dtACCESS:          0  dtHIT:          0  dtMISS:          0
cpu0_DTLB PREFETCH  REQUESTED:          0  ISSUED:          0  CROSSED:          0  USEFUL:          0  USELESS:          0
cpu0_DTLB AVERAGE iMISS LATENCY: 0 cycles
cpu0_DTLB AVERAGE dMISS LATENCY: 10.4613 cycles
cpu0_DTLB AVERAGE itMISS LATENCY: 0 cycles
cpu0_DTLB AVERAGE dtMISS LATENCY: 0 cycles
cpu0_DTLB PAGE CROSSINGS (TLB HIT):         0 
cpu0_DTLB PAGE CROSSINGS (TLB MISS):         0 
cpu0_DTLB AVERAGE MISS LATENCY: 10.4613 cycles
cpu0_STLB TOTAL       ACCESS:    1509548  HIT:    1348681  MISS:     160867  iACCESS:     387523  iHIT:     331223  iMISS:      56300  dACCESS:    1122025  dHIT:    1017458  dMISS:     104567  itACCESS:          0  itHIT:          0  itMISS:          0  dtACCESS:          0  dtHIT:          0  dtMISS:          0
cpu0_STLB LOAD         ACCESS:    1509548  HIT:    1348681  MISS:     160867  iACCESS:     387523  iHIT:     331223  iMISS:      56300  dACCESS:    1122025  dHIT:    1017458  dMISS:     104567  itACCESS:          0  itHIT:          0  itMISS:          0  dtACCESS:          0  dtHIT:          0  dtMISS:          0
cpu0_STLB RFO          ACCESS:          0  HIT:          0  MISS:          0  iACCESS:          0  iHIT:          0  iMISS:          0  dACCESS:          0  dHIT:          0  dMISS:          0  itACCESS:          0  itHIT:          0  itMISS:          0  dtACCESS:          0  dtHIT:          0  dtMISS:          0
cpu0_STLB PREFETCH     ACCESS:          0  HIT:          0  MISS:          0  iACCESS:          0  iHIT:          0  iMISS:          0  dACCESS:          0  dHIT:          0  dMISS:          0  itACCESS:          0  itHIT:          0  itMISS:          0  dtACCESS:          0  dtHIT:          0  dtMISS:          0
cpu0_STLB WRITE        ACCESS:          0  HIT:          0  MISS:          0  iACCESS:          0  iHIT:          0  iMISS:          0  dACCESS:          0  dHIT:          0  dMISS:          0  itACCESS:          0  itHIT:          0  itMISS:          0  dtACCESS:          0  dtHIT:          0  dtMISS:          0
cpu0_STLB TRANSLATION  ACCESS:          0  HIT:          0  MISS:          0  iACCESS:          0  iHIT:          0  iMISS:          0  dACCESS:          0  dHIT:          0  dMISS:          0  itACCESS:          0  itHIT:          0  itMISS:          0  dtACCESS:          0  dtHIT:          0  dtMISS:          0
cpu0_STLB PREFETCH  REQUESTED:          0  ISSUED:          0  CROSSED:          0  USEFUL:          0  USELESS:          0
cpu0_STLB AVERAGE iMISS LATENCY: 16.5188 cycles
cpu0_STLB AVERAGE dMISS LATENCY: 62.9573 cycles
cpu0_STLB AVERAGE itMISS LATENCY: 0 cycles
cpu0_STLB AVERAGE dtMISS LATENCY: 0 cycles
cpu0_STLB PAGE CROSSINGS (TLB HIT):         0 
cpu0_STLB PAGE CROSSINGS (TLB MISS):         0 
cpu0_STLB AVERAGE MISS LATENCY: 79.4761 cycles
cpu0_L1D TOTAL       ACCESS:   41393554  HIT:   37918688  MISS:    3474866  iACCESS:          0  iHIT:          0  iMISS:          0  dACCESS:   41171795  dHIT:   37899311  dMISS:    3272484  itACCESS:      61104  itHIT:       8829  itMISS:      52275  dtACCESS:     160655  dtHIT:      10548  dtMISS:     150107
cpu0_L1D LOAD         ACCESS:   18960527  HIT:   17463311  MISS:    1497216  iACCESS:          0  iHIT:          0  iMISS:          0  dACCESS:   18960527  dHIT:   17463311  dMISS:    1497216  itACCESS:          0  itHIT:          0  itMISS:          0  dtACCESS:          0  dtHIT:          0  dtMISS:          0
cpu0_L1D RFO          ACCESS:          0  HIT:          0  MISS:          0  iACCESS:          0  iHIT:          0  iMISS:          0  dACCESS:          0  dHIT:          0  dMISS:          0  itACCESS:          0  itHIT:          0  itMISS:          0  dtACCESS:          0  dtHIT:          0  dtMISS:          0
cpu0_L1D PREFETCH     ACCESS:   12104835  HIT:   10754057  MISS:    1350778  iACCESS:          0  iHIT:          0  iMISS:          0  dACCESS:   12104835  dHIT:   10754057  dMISS:    1350778  itACCESS:          0  itHIT:          0  itMISS:          0  dtACCESS:          0  dtHIT:          0  dtMISS:          0
cpu0_L1D WRITE        ACCESS:   10106433  HIT:    9681943  MISS:     424490  iACCESS:          0  iHIT:          0  iMISS:          0  dACCESS:   10106433  dHIT:    9681943  dMISS:     424490  itACCESS:          0  itHIT:          0  itMISS:          0  dtACCESS:          0  dtHIT:          0  dtMISS:          0
cpu0_L1D TRANSLATION  ACCESS:     221759  HIT:      19377  MISS:     202382  iACCESS:          0  iHIT:          0  iMISS:          0  dACCESS:          0  dHIT:          0  dMISS:          0  itACCESS:      61104  itHIT:       8829  itMISS:      52275  dtACCESS:     160655  dtHIT:      10548  dtMISS:     150107
cpu0_L1D PREFETCH  REQUESTED:   18960527  ISSUED:   16910471  CROSSED:          0  USEFUL:     311433  USELESS:     703682
cpu0_L1D AVERAGE iMISS LATENCY: 0 cycles
cpu0_L1D AVERAGE dMISS LATENCY: 32.0207 cycles
cpu0_L1D AVERAGE itMISS LATENCY: 0.622514 cycles
cpu0_L1D AVERAGE dtMISS LATENCY: 2.25661 cycles
cpu0_L1D PAGE CROSSINGS (TLB HIT):         0 
cpu0_L1D PAGE CROSSINGS (TLB MISS):         0 
cpu0_L1D AVERAGE MISS LATENCY: 34.8998 cycles
cpu0_L2C TOTAL       ACCESS:    7002787  HIT:    1695292  MISS:    5307495  iACCESS:    3317990  iHIT:     858946  iMISS:    2459044  dACCESS:    3494439  dHIT:     721730  dMISS:    2772709  itACCESS:      52275  itHIT:      38735  itMISS:      13540  dtACCESS:     138083  dtHIT:      75881  dtMISS:      62202
cpu0_L2C LOAD         ACCESS:    1726097  HIT:     298734  MISS:    1427363  iACCESS:     791667  iHIT:     144042  iMISS:     647625  dACCESS:     934430  dHIT:     154692  dMISS:     779738  itACCESS:          0  itHIT:          0  itMISS:          0  dtACCESS:          0  dtHIT:          0  dtMISS:          0
cpu0_L2C RFO          ACCESS:     156331  HIT:      53948  MISS:     102383  iACCESS:          0  iHIT:          0  iMISS:          0  dACCESS:     156331  dHIT:      53948  dMISS:     102383  itACCESS:          0  itHIT:          0  itMISS:          0  dtACCESS:          0  dtHIT:          0  dtMISS:          0
cpu0_L2C PREFETCH     ACCESS:    4647433  HIT:    1084497  MISS:    3562936  iACCESS:    2526323  iHIT:     714904  iMISS:    1811419  dACCESS:    2121110  dHIT:     369593  dMISS:    1751517  itACCESS:          0  itHIT:          0  itMISS:          0  dtACCESS:          0  dtHIT:          0  dtMISS:          0
cpu0_L2C WRITE        ACCESS:     282568  HIT:     143497  MISS:     139071  iACCESS:          0  iHIT:          0  iMISS:          0  dACCESS:     282568  dHIT:     143497  dMISS:     139071  itACCESS:          0  itHIT:          0  itMISS:          0  dtACCESS:          0  dtHIT:          0  dtMISS:          0
cpu0_L2C TRANSLATION  ACCESS:     190358  HIT:     114616  MISS:      75742  iACCESS:          0  iHIT:          0  iMISS:          0  dACCESS:          0  dHIT:          0  dMISS:          0  itACCESS:      52275  itHIT:      38735  itMISS:      13540  dtACCESS:     138083  dtHIT:      75881  dtMISS:      62202
cpu0_L2C PREFETCH  REQUESTED:    1392982  ISSUED:    1392982  CROSSED:          0  USEFUL:     409968  USELESS:     376253
cpu0_L2C AVERAGE iMISS LATENCY: 15.2482 cycles
cpu0_L2C AVERAGE dMISS LATENCY: 23.9265 cycles
cpu0_L2C AVERAGE itMISS LATENCY: 0.316157 cycles
cpu0_L2C AVERAGE dtMISS LATENCY: 1.23 cycles
cpu0_L2C PAGE CROSSINGS (TLB HIT):         0 
cpu0_L2C PAGE CROSSINGS (TLB MISS):         0 
cpu0_L2C AVERAGE MISS LATENCY: 40.7208 cycles
LLC TOTAL       ACCESS:    5195822  HIT:    4444030  MISS:     751792  iACCESS:    2405576  iHIT:    2173649  iMISS:     231927  dACCESS:    2714504  dHIT:    2232562  dMISS:     481942  itACCESS:      13540  itHIT:       5318  itMISS:       8222  dtACCESS:      62202  dtHIT:      32501  dtMISS:      29701
LLC LOAD         ACCESS:    1425305  HIT:    1257747  MISS:     167558  iACCESS:     645930  iHIT:     596504  iMISS:      49426  dACCESS:     779375  dHIT:     661243  dMISS:     118132  itACCESS:          0  itHIT:          0  itMISS:          0  dtACCESS:          0  dtHIT:          0  dtMISS:          0
LLC RFO          ACCESS:     102380  HIT:      70717  MISS:      31663  iACCESS:          0  iHIT:          0  iMISS:          0  dACCESS:     102380  dHIT:      70717  dMISS:      31663  itACCESS:          0  itHIT:          0  itMISS:          0  dtACCESS:          0  dtHIT:          0  dtMISS:          0
LLC PREFETCH     ACCESS:    3461728  HIT:    2955223  MISS:     506505  iACCESS:    1759646  iHIT:    1577145  iMISS:     182501  dACCESS:    1702082  dHIT:    1378078  dMISS:     324004  itACCESS:          0  itHIT:          0  itMISS:          0  dtACCESS:          0  dtHIT:          0  dtMISS:          0
LLC WRITE        ACCESS:     130667  HIT:     122524  MISS:       8143  iACCESS:          0  iHIT:          0  iMISS:          0  dACCESS:     130667  dHIT:     122524  dMISS:       8143  itACCESS:          0  itHIT:          0  itMISS:          0  dtACCESS:          0  dtHIT:          0  dtMISS:          0
LLC TRANSLATION  ACCESS:      75742  HIT:      37819  MISS:      37923  iACCESS:          0  iHIT:          0  iMISS:          0  dACCESS:          0  dHIT:          0  dMISS:          0  itACCESS:      13540  itHIT:       5318  itMISS:       8222  dtACCESS:      62202  dtHIT:      32501  dtMISS:      29701
LLC PREFETCH  REQUESTED:          0  ISSUED:          0  CROSSED:          0  USEFUL:          0  USELESS:          0
LLC AVERAGE iMISS LATENCY: 45.8878 cycles
LLC AVERAGE dMISS LATENCY: 102.504 cycles
LLC AVERAGE itMISS LATENCY: 1.87944 cycles
LLC AVERAGE dtMISS LATENCY: 7.07298 cycles
LLC PAGE CROSSINGS (TLB HIT):         0 
LLC PAGE CROSSINGS (TLB MISS):         0 
LLC AVERAGE MISS LATENCY: 157.344 cycles

PageTableWalker TOTAL       ACCESS:      81673  
PageTableWalker AVERAGE LATENCY: 4.42586 cycles
PageTableWalker TOTAL LATENCY: 361473 cycles

DRAM Statistics
Channel 0
 RQ ROW_BUFFER_HIT:     197529
  ROW_BUFFER_MISS:     546090
 AVG DBUS CONGESTED CYCLE:    3.61889
 WQ ROW_BUFFER_HIT:      14331
  ROW_BUFFER_MISS:      19896  FULL:          0

