last_page:0x200000000000000
VMEM_RES_CAP:0x100000
PAGE_SIZE:4096
LOG2_PAGE_SIZE:12
LOG2_PAGE_TABLE_SIZE:9
page_table_levels:5
WARNING: physical memory size is smaller than virtual memory size
FDiP enabled with aggresivity 16

*** ChampSim Multicore Out-of-Order Simulator ***

Warmup Instructions: 50000000
Simulation Instructions: 100000000
Number of CPUs: 1
Small page size: 4096
Large page size: 2097152

CPU 0 Bimodal branch predictor
Basic BTB sets: 1024 ways: 8 indirect buffer size: 4096 RAS size: 64
Instruction page size distrubution: 0
Loading instruction page size distribution from /home/bsc/bsc018186/scratch/itp_asplos25_AE/dump/srv390_ap.pdst
Data page size distrubution: 0
Loading data page size distribution from /home/bsc/bsc018186/scratch/itp_asplos25_AE/dump/srv390_ap.pdst
cpu0_L2C IP-based stride prefetcher
cpu0_L1D next line prefetcher
CHiRPing...
cpu0_L1I next line prefetcher
Off-chip DRAM Size: 4 GiB Channels: 1 Width: 64-bit Data Rate: 3200 MT/s
Heartbeat CPU 0 instructions: 10000001 cycles: 2500128 heartbeat IPC: 3.9998 cumulative IPC: 3.9998 (Simulation time: 0 hr 0 min 38 sec) 
Heartbeat CPU 0 instructions: 20000003 cycles: 5000180 heartbeat IPC: 3.99992 cumulative IPC: 3.99986 (Simulation time: 0 hr 1 min 18 sec) 
Heartbeat CPU 0 instructions: 30000001 cycles: 7500219 heartbeat IPC: 3.99994 cumulative IPC: 3.99989 (Simulation time: 0 hr 2 min 0 sec) 
Heartbeat CPU 0 instructions: 40000001 cycles: 10000228 heartbeat IPC: 3.99999 cumulative IPC: 3.99991 (Simulation time: 0 hr 2 min 42 sec) 
Heartbeat CPU 0 instructions: 50000003 cycles: 12500286 heartbeat IPC: 3.99991 cumulative IPC: 3.99991 (Simulation time: 0 hr 3 min 24 sec) 
Warmup finished CPU 0 instructions: 50000003 cycles: 12500287 cumulative IPC: 3.99991 (Simulation time: 0 hr 3 min 24 sec) 

Warmup complete CPU 0 instructions: 50000003 cycles: 12500287 (Simulation time: 0 hr 3 min 24 sec) 

Heartbeat CPU 0 instructions: 60000004 cycles: 26692812 heartbeat IPC: 0.704597 cumulative IPC: 0.704597 (Simulation time: 0 hr 4 min 29 sec) 
Heartbeat CPU 0 instructions: 70000001 cycles: 40257412 heartbeat IPC: 0.737213 cumulative IPC: 0.720536 (Simulation time: 0 hr 5 min 33 sec) 
Heartbeat CPU 0 instructions: 80000003 cycles: 54245746 heartbeat IPC: 0.714882 cumulative IPC: 0.718642 (Simulation time: 0 hr 6 min 38 sec) 
Heartbeat CPU 0 instructions: 90000003 cycles: 67642843 heartbeat IPC: 0.746431 cumulative IPC: 0.725393 (Simulation time: 0 hr 7 min 42 sec) 
Heartbeat CPU 0 instructions: 100000002 cycles: 81487258 heartbeat IPC: 0.722313 cumulative IPC: 0.724775 (Simulation time: 0 hr 8 min 48 sec) 
*** Reached end of trace: /gpfs/projects/bsc18/MN4/bsc18/romol/ChampSim/traces/qualcomm_srv/srv390_ap.champsimtrace.xz
Heartbeat CPU 0 instructions: 110000004 cycles: 95207471 heartbeat IPC: 0.728852 cumulative IPC: 0.725451 (Simulation time: 0 hr 9 min 54 sec) 
Heartbeat CPU 0 instructions: 120000001 cycles: 108345274 heartbeat IPC: 0.761163 cumulative IPC: 0.730346 (Simulation time: 0 hr 10 min 58 sec) 
Heartbeat CPU 0 instructions: 130000003 cycles: 121940624 heartbeat IPC: 0.735546 cumulative IPC: 0.730992 (Simulation time: 0 hr 12 min 4 sec) 
Heartbeat CPU 0 instructions: 140000001 cycles: 135642010 heartbeat IPC: 0.729854 cumulative IPC: 0.730866 (Simulation time: 0 hr 13 min 9 sec) 
Heartbeat CPU 0 instructions: 150000000 cycles: 149333644 heartbeat IPC: 0.730373 cumulative IPC: 0.730816 (Simulation time: 0 hr 14 min 15 sec) 
Simulation finished CPU 0 instructions: 100000000 cycles: 136833369 cumulative IPC: 0.730816 (Simulation time: 0 hr 14 min 15 sec) 

Simulation complete CPU 0 instructions: 100000000 cycles: 136833369 (Simulation time: 0 hr 14 min 15 sec) 


ChampSim completed all CPUs

Saving instructions large page distribution to /home/bsc/bsc018186/scratch/itp_asplos25_AE/dump/srv390_ap.pdst...
Saving data large page distribution to /home/bsc/bsc018186/scratch/itp_asplos25_AE/dump/srv390_ap.pdst...
=== Simulation ===
CPU 0 runs /gpfs/projects/bsc18/MN4/bsc18/romol/ChampSim/traces/qualcomm_srv/srv390_ap.champsimtrace.xz

Region of Interest Statistics

CPU 0 cumulative IPC: 0.730816 instructions: 100000000 cycles: 136833369
CPU 0 Branch Prediction Accuracy: 83.5361% MPKI: 29.553 Average ROB Occupancy at Mispredict: 12.3695
Branch type MPKI
BRANCH_DIRECT_JUMP: 0.938461
BRANCH_INDIRECT: 15.3301
BRANCH_CONDITIONAL: 9.68696
BRANCH_DIRECT_CALL: 1.79034
BRANCH_INDIRECT_CALL: 0.498541
BRANCH_RETURN: 1.30866

Instructions large pages: 0
Instructions small pages: 846
Large page distribution for instructions: 0%

Data large pages: 0
Data small pages: 9042
Large page distribution for data: 0%

cpu0_L1I TOTAL       ACCESS:   35008034  HIT:   26513360  MISS:    8494674  iACCESS:   35008034  iHIT:   26513360  iMISS:    8494674  dACCESS:          0  dHIT:          0  dMISS:          0  itACCESS:          0  itHIT:          0  itMISS:          0  dtACCESS:          0  dtHIT:          0  dtMISS:          0
cpu0_L1I LOAD         ACCESS:   10206166  HIT:    7822833  MISS:    2383333  iACCESS:   10206166  iHIT:    7822833  iMISS:    2383333  dACCESS:          0  dHIT:          0  dMISS:          0  itACCESS:          0  itHIT:          0  itMISS:          0  dtACCESS:          0  dtHIT:          0  dtMISS:          0
cpu0_L1I RFO          ACCESS:          0  HIT:          0  MISS:          0  iACCESS:          0  iHIT:          0  iMISS:          0  dACCESS:          0  dHIT:          0  dMISS:          0  itACCESS:          0  itHIT:          0  itMISS:          0  dtACCESS:          0  dtHIT:          0  dtMISS:          0
cpu0_L1I PREFETCH     ACCESS:   24801868  HIT:   18690527  MISS:    6111341  iACCESS:   24801868  iHIT:   18690527  iMISS:    6111341  dACCESS:          0  dHIT:          0  dMISS:          0  itACCESS:          0  itHIT:          0  itMISS:          0  dtACCESS:          0  dtHIT:          0  dtMISS:          0
cpu0_L1I WRITE        ACCESS:          0  HIT:          0  MISS:          0  iACCESS:          0  iHIT:          0  iMISS:          0  dACCESS:          0  dHIT:          0  dMISS:          0  itACCESS:          0  itHIT:          0  itMISS:          0  dtACCESS:          0  dtHIT:          0  dtMISS:          0
cpu0_L1I TRANSLATION  ACCESS:          0  HIT:          0  MISS:          0  iACCESS:          0  iHIT:          0  iMISS:          0  dACCESS:          0  dHIT:          0  dMISS:          0  itACCESS:          0  itHIT:          0  itMISS:          0  dtACCESS:          0  dtHIT:          0  dtMISS:          0
cpu0_L1I PREFETCH  REQUESTED:   27083144  ISSUED:   27081377  CROSSED:          0  USEFUL:    1934256  USELESS:     636737
cpu0_L1I AVERAGE iMISS LATENCY: 12.8511 cycles
cpu0_L1I AVERAGE dMISS LATENCY: 0 cycles
cpu0_L1I AVERAGE itMISS LATENCY: 0 cycles
cpu0_L1I AVERAGE dtMISS LATENCY: 0 cycles
cpu0_L1I PAGE CROSSINGS (TLB HIT):         0 
cpu0_L1I PAGE CROSSINGS (TLB MISS):         0 
cpu0_L1I AVERAGE MISS LATENCY: 12.8511 cycles
cpu0_ITLB TOTAL       ACCESS:   28981039  HIT:   26983590  MISS:    1997449  iACCESS:   28981039  iHIT:   26983590  iMISS:    1997449  dACCESS:          0  dHIT:          0  dMISS:          0  itACCESS:          0  itHIT:          0  itMISS:          0  dtACCESS:          0  dtHIT:          0  dtMISS:          0
cpu0_ITLB LOAD         ACCESS:   28981039  HIT:   26983590  MISS:    1997449  iACCESS:   28981039  iHIT:   26983590  iMISS:    1997449  dACCESS:          0  dHIT:          0  dMISS:          0  itACCESS:          0  itHIT:          0  itMISS:          0  dtACCESS:          0  dtHIT:          0  dtMISS:          0
cpu0_ITLB RFO          ACCESS:          0  HIT:          0  MISS:          0  iACCESS:          0  iHIT:          0  iMISS:          0  dACCESS:          0  dHIT:          0  dMISS:          0  itACCESS:          0  itHIT:          0  itMISS:          0  dtACCESS:          0  dtHIT:          0  dtMISS:          0
cpu0_ITLB PREFETCH     ACCESS:          0  HIT:          0  MISS:          0  iACCESS:          0  iHIT:          0  iMISS:          0  dACCESS:          0  dHIT:          0  dMISS:          0  itACCESS:          0  itHIT:          0  itMISS:          0  dtACCESS:          0  dtHIT:          0  dtMISS:          0
cpu0_ITLB WRITE        ACCESS:          0  HIT:          0  MISS:          0  iACCESS:          0  iHIT:          0  iMISS:          0  dACCESS:          0  dHIT:          0  dMISS:          0  itACCESS:          0  itHIT:          0  itMISS:          0  dtACCESS:          0  dtHIT:          0  dtMISS:          0
cpu0_ITLB TRANSLATION  ACCESS:          0  HIT:          0  MISS:          0  iACCESS:          0  iHIT:          0  iMISS:          0  dACCESS:          0  dHIT:          0  dMISS:          0  itACCESS:          0  itHIT:          0  itMISS:          0  dtACCESS:          0  dtHIT:          0  dtMISS:          0
cpu0_ITLB PREFETCH  REQUESTED:          0  ISSUED:          0  CROSSED:          0  USEFUL:     325139  USELESS:      63229
cpu0_ITLB AVERAGE iMISS LATENCY: 2.82918 cycles
cpu0_ITLB AVERAGE dMISS LATENCY: 0 cycles
cpu0_ITLB AVERAGE itMISS LATENCY: 0 cycles
cpu0_ITLB AVERAGE dtMISS LATENCY: 0 cycles
cpu0_ITLB PAGE CROSSINGS (TLB HIT):         0 
cpu0_ITLB PAGE CROSSINGS (TLB MISS):         0 
cpu0_ITLB AVERAGE MISS LATENCY: 2.82918 cycles
cpu0_DTLB TOTAL       ACCESS:   27732612  HIT:   25640072  MISS:    2092540  iACCESS:          0  iHIT:          0  iMISS:          0  dACCESS:   27732612  dHIT:   25640072  dMISS:    2092540  itACCESS:          0  itHIT:          0  itMISS:          0  dtACCESS:          0  dtHIT:          0  dtMISS:          0
cpu0_DTLB LOAD         ACCESS:   27732612  HIT:   25640072  MISS:    2092540  iACCESS:          0  iHIT:          0  iMISS:          0  dACCESS:   27732612  dHIT:   25640072  dMISS:    2092540  itACCESS:          0  itHIT:          0  itMISS:          0  dtACCESS:          0  dtHIT:          0  dtMISS:          0
cpu0_DTLB RFO          ACCESS:          0  HIT:          0  MISS:          0  iACCESS:          0  iHIT:          0  iMISS:          0  dACCESS:          0  dHIT:          0  dMISS:          0  itACCESS:          0  itHIT:          0  itMISS:          0  dtACCESS:          0  dtHIT:          0  dtMISS:          0
cpu0_DTLB PREFETCH     ACCESS:          0  HIT:          0  MISS:          0  iACCESS:          0  iHIT:          0  iMISS:          0  dACCESS:          0  dHIT:          0  dMISS:          0  itACCESS:          0  itHIT:          0  itMISS:          0  dtACCESS:          0  dtHIT:          0  dtMISS:          0
cpu0_DTLB WRITE        ACCESS:          0  HIT:          0  MISS:          0  iACCESS:          0  iHIT:          0  iMISS:          0  dACCESS:          0  dHIT:          0  dMISS:          0  itACCESS:          0  itHIT:          0  itMISS:          0  dtACCESS:          0  dtHIT:          0  dtMISS:          0
cpu0_DTLB TRANSLATION  ACCESS:          0  HIT:          0  MISS:          0  iACCESS:          0  iHIT:          0  iMISS:          0  dACCESS:          0  dHIT:          0  dMISS:          0  itACCESS:          0  itHIT:          0  itMISS:          0  dtACCESS:          0  dtHIT:          0  dtMISS:          0
cpu0_DTLB PREFETCH  REQUESTED:          0  ISSUED:          0  CROSSED:          0  USEFUL:          0  USELESS:          0
cpu0_DTLB AVERAGE iMISS LATENCY: 0 cycles
cpu0_DTLB AVERAGE dMISS LATENCY: 9.27337 cycles
cpu0_DTLB AVERAGE itMISS LATENCY: 0 cycles
cpu0_DTLB AVERAGE dtMISS LATENCY: 0 cycles
cpu0_DTLB PAGE CROSSINGS (TLB HIT):         0 
cpu0_DTLB PAGE CROSSINGS (TLB MISS):         0 
cpu0_DTLB AVERAGE MISS LATENCY: 9.27337 cycles
cpu0_STLB TOTAL       ACCESS:    1636806  HIT:    1481058  MISS:     155748  iACCESS:     388382  iHIT:     333913  iMISS:      54469  dACCESS:    1248424  dHIT:    1147145  dMISS:     101279  itACCESS:          0  itHIT:          0  itMISS:          0  dtACCESS:          0  dtHIT:          0  dtMISS:          0
cpu0_STLB LOAD         ACCESS:    1636806  HIT:    1481058  MISS:     155748  iACCESS:     388382  iHIT:     333913  iMISS:      54469  dACCESS:    1248424  dHIT:    1147145  dMISS:     101279  itACCESS:          0  itHIT:          0  itMISS:          0  dtACCESS:          0  dtHIT:          0  dtMISS:          0
cpu0_STLB RFO          ACCESS:          0  HIT:          0  MISS:          0  iACCESS:          0  iHIT:          0  iMISS:          0  dACCESS:          0  dHIT:          0  dMISS:          0  itACCESS:          0  itHIT:          0  itMISS:          0  dtACCESS:          0  dtHIT:          0  dtMISS:          0
cpu0_STLB PREFETCH     ACCESS:          0  HIT:          0  MISS:          0  iACCESS:          0  iHIT:          0  iMISS:          0  dACCESS:          0  dHIT:          0  dMISS:          0  itACCESS:          0  itHIT:          0  itMISS:          0  dtACCESS:          0  dtHIT:          0  dtMISS:          0
cpu0_STLB WRITE        ACCESS:          0  HIT:          0  MISS:          0  iACCESS:          0  iHIT:          0  iMISS:          0  dACCESS:          0  dHIT:          0  dMISS:          0  itACCESS:          0  itHIT:          0  itMISS:          0  dtACCESS:          0  dtHIT:          0  dtMISS:          0
cpu0_STLB TRANSLATION  ACCESS:          0  HIT:          0  MISS:          0  iACCESS:          0  iHIT:          0  iMISS:          0  dACCESS:          0  dHIT:          0  dMISS:          0  itACCESS:          0  itHIT:          0  itMISS:          0  dtACCESS:          0  dtHIT:          0  dtMISS:          0
cpu0_STLB PREFETCH  REQUESTED:          0  ISSUED:          0  CROSSED:          0  USEFUL:          0  USELESS:          0
cpu0_STLB AVERAGE iMISS LATENCY: 16.6133 cycles
cpu0_STLB AVERAGE dMISS LATENCY: 60.7908 cycles
cpu0_STLB AVERAGE itMISS LATENCY: 0 cycles
cpu0_STLB AVERAGE dtMISS LATENCY: 0 cycles
cpu0_STLB PAGE CROSSINGS (TLB HIT):         0 
cpu0_STLB PAGE CROSSINGS (TLB MISS):         0 
cpu0_STLB AVERAGE MISS LATENCY: 77.404 cycles
cpu0_L1D TOTAL       ACCESS:   41479059  HIT:   38006520  MISS:    3472539  iACCESS:          0  iHIT:          0  iMISS:          0  dACCESS:   41264525  dHIT:   37987998  dMISS:    3276527  itACCESS:      59089  itHIT:       8543  itMISS:      50546  dtACCESS:     155445  dtHIT:       9979  dtMISS:     145466
cpu0_L1D LOAD         ACCESS:   18938190  HIT:   17434024  MISS:    1504166  iACCESS:          0  iHIT:          0  iMISS:          0  dACCESS:   18938190  dHIT:   17434024  dMISS:    1504166  itACCESS:          0  itHIT:          0  itMISS:          0  dtACCESS:          0  dtHIT:          0  dtMISS:          0
cpu0_L1D RFO          ACCESS:          0  HIT:          0  MISS:          0  iACCESS:          0  iHIT:          0  iMISS:          0  dACCESS:          0  dHIT:          0  dMISS:          0  itACCESS:          0  itHIT:          0  itMISS:          0  dtACCESS:          0  dtHIT:          0  dtMISS:          0
cpu0_L1D PREFETCH     ACCESS:   12197669  HIT:   10848878  MISS:    1348791  iACCESS:          0  iHIT:          0  iMISS:          0  dACCESS:   12197669  dHIT:   10848878  dMISS:    1348791  itACCESS:          0  itHIT:          0  itMISS:          0  dtACCESS:          0  dtHIT:          0  dtMISS:          0
cpu0_L1D WRITE        ACCESS:   10128666  HIT:    9705096  MISS:     423570  iACCESS:          0  iHIT:          0  iMISS:          0  dACCESS:   10128666  dHIT:    9705096  dMISS:     423570  itACCESS:          0  itHIT:          0  itMISS:          0  dtACCESS:          0  dtHIT:          0  dtMISS:          0
cpu0_L1D TRANSLATION  ACCESS:     214534  HIT:      18522  MISS:     196012  iACCESS:          0  iHIT:          0  iMISS:          0  dACCESS:          0  dHIT:          0  dMISS:          0  itACCESS:      59089  itHIT:       8543  itMISS:      50546  dtACCESS:     155445  dtHIT:       9979  dtMISS:     145466
cpu0_L1D PREFETCH  REQUESTED:   18938190  ISSUED:   17060691  CROSSED:          0  USEFUL:     307988  USELESS:     705886
cpu0_L1D AVERAGE iMISS LATENCY: 0 cycles
cpu0_L1D AVERAGE dMISS LATENCY: 32.0857 cycles
cpu0_L1D AVERAGE itMISS LATENCY: 0.609336 cycles
cpu0_L1D AVERAGE dtMISS LATENCY: 2.09131 cycles
cpu0_L1D PAGE CROSSINGS (TLB HIT):         0 
cpu0_L1D PAGE CROSSINGS (TLB MISS):         0 
cpu0_L1D AVERAGE MISS LATENCY: 34.7863 cycles
cpu0_L2C TOTAL       ACCESS:    7008373  HIT:    1707752  MISS:    5300621  iACCESS:    3330533  iHIT:     888925  iMISS:    2441608  dACCESS:    3493430  dHIT:     708068  dMISS:    2785362  itACCESS:      50546  itHIT:      36841  itMISS:      13705  dtACCESS:     133864  dtHIT:      73918  dtMISS:      59946
cpu0_L2C LOAD         ACCESS:    1735643  HIT:     307952  MISS:    1427691  iACCESS:     798094  iHIT:     150367  iMISS:     647727  dACCESS:     937549  dHIT:     157585  dMISS:     779964  itACCESS:          0  itHIT:          0  itMISS:          0  dtACCESS:          0  dtHIT:          0  dtMISS:          0
cpu0_L2C RFO          ACCESS:     155898  HIT:      52545  MISS:     103353  iACCESS:          0  iHIT:          0  iMISS:          0  dACCESS:     155898  dHIT:      52545  dMISS:     103353  itACCESS:          0  itHIT:          0  itMISS:          0  dtACCESS:          0  dtHIT:          0  dtMISS:          0
cpu0_L2C PREFETCH     ACCESS:    4648218  HIT:    1097787  MISS:    3550431  iACCESS:    2532439  iHIT:     738558  iMISS:    1793881  dACCESS:    2115779  dHIT:     359229  dMISS:    1756550  itACCESS:          0  itHIT:          0  itMISS:          0  dtACCESS:          0  dtHIT:          0  dtMISS:          0
cpu0_L2C WRITE        ACCESS:     284204  HIT:     138709  MISS:     145495  iACCESS:          0  iHIT:          0  iMISS:          0  dACCESS:     284204  dHIT:     138709  dMISS:     145495  itACCESS:          0  itHIT:          0  itMISS:          0  dtACCESS:          0  dtHIT:          0  dtMISS:          0
cpu0_L2C TRANSLATION  ACCESS:     184410  HIT:     110759  MISS:      73651  iACCESS:          0  iHIT:          0  iMISS:          0  dACCESS:          0  dHIT:          0  dMISS:          0  itACCESS:      50546  itHIT:      36841  itMISS:      13705  dtACCESS:     133864  dtHIT:      73918  dtMISS:      59946
cpu0_L2C PREFETCH  REQUESTED:    1391964  ISSUED:    1391964  CROSSED:          0  USEFUL:     403268  USELESS:     378937
cpu0_L2C AVERAGE iMISS LATENCY: 14.6999 cycles
cpu0_L2C AVERAGE dMISS LATENCY: 24.0765 cycles
cpu0_L2C AVERAGE itMISS LATENCY: 0.310588 cycles
cpu0_L2C AVERAGE dtMISS LATENCY: 1.13006 cycles
cpu0_L2C PAGE CROSSINGS (TLB HIT):         0 
cpu0_L2C PAGE CROSSINGS (TLB MISS):         0 
cpu0_L2C AVERAGE MISS LATENCY: 40.217 cycles
LLC TOTAL       ACCESS:    5180919  HIT:    4430934  MISS:     749985  iACCESS:    2384349  iHIT:    2165401  iMISS:     218948  dACCESS:    2722919  dHIT:    2227048  dMISS:     495871  itACCESS:      13705  itHIT:       5640  itMISS:       8065  dtACCESS:      59946  dtHIT:      32845  dtMISS:      27101
LLC LOAD         ACCESS:    1425130  HIT:    1258784  MISS:     166346  iACCESS:     645581  iHIT:     598410  iMISS:      47171  dACCESS:     779549  dHIT:     660374  dMISS:     119175  itACCESS:          0  itHIT:          0  itMISS:          0  dtACCESS:          0  dtHIT:          0  dtMISS:          0
LLC RFO          ACCESS:     103353  HIT:      70620  MISS:      32733  iACCESS:          0  iHIT:          0  iMISS:          0  dACCESS:     103353  dHIT:      70620  dMISS:      32733  itACCESS:          0  itHIT:          0  itMISS:          0  dtACCESS:          0  dtHIT:          0  dtMISS:          0
LLC PREFETCH     ACCESS:    3444206  HIT:    2936628  MISS:     507578  iACCESS:    1738768  iHIT:    1566991  iMISS:     171777  dACCESS:    1705438  dHIT:    1369637  dMISS:     335801  itACCESS:          0  itHIT:          0  itMISS:          0  dtACCESS:          0  dtHIT:          0  dtMISS:          0
LLC WRITE        ACCESS:     134579  HIT:     126417  MISS:       8162  iACCESS:          0  iHIT:          0  iMISS:          0  dACCESS:     134579  dHIT:     126417  dMISS:       8162  itACCESS:          0  itHIT:          0  itMISS:          0  dtACCESS:          0  dtHIT:          0  dtMISS:          0
LLC TRANSLATION  ACCESS:      73651  HIT:      38485  MISS:      35166  iACCESS:          0  iHIT:          0  iMISS:          0  dACCESS:          0  dHIT:          0  dMISS:          0  itACCESS:      13705  itHIT:       5640  itMISS:       8065  dtACCESS:      59946  dtHIT:      32845  dtMISS:      27101
LLC PREFETCH  REQUESTED:          0  ISSUED:          0  CROSSED:          0  USEFUL:          0  USELESS:          0
LLC AVERAGE iMISS LATENCY: 42.5432 cycles
LLC AVERAGE dMISS LATENCY: 103.6 cycles
LLC AVERAGE itMISS LATENCY: 1.83782 cycles
LLC AVERAGE dtMISS LATENCY: 6.43352 cycles
LLC PAGE CROSSINGS (TLB HIT):         0 
LLC PAGE CROSSINGS (TLB MISS):         0 
LLC AVERAGE MISS LATENCY: 154.414 cycles

PageTableWalker TOTAL       ACCESS:      78718  
PageTableWalker AVERAGE LATENCY: 4.44749 cycles
PageTableWalker TOTAL LATENCY: 350097 cycles

DRAM Statistics
Channel 0
 RQ ROW_BUFFER_HIT:     215311
  ROW_BUFFER_MISS:     526491
 AVG DBUS CONGESTED CYCLE:    3.62456
 WQ ROW_BUFFER_HIT:      15165
  ROW_BUFFER_MISS:      20601  FULL:          0

