last_page:0x200000000000000
VMEM_RES_CAP:0x100000
PAGE_SIZE:4096
LOG2_PAGE_SIZE:12
LOG2_PAGE_TABLE_SIZE:9
page_table_levels:5
WARNING: physical memory size is smaller than virtual memory size
FDiP enabled with aggresivity 16

*** ChampSim Multicore Out-of-Order Simulator ***

Warmup Instructions: 50000000
Simulation Instructions: 100000000
Number of CPUs: 1
Small page size: 4096
Large page size: 2097152

CPU 0 Bimodal branch predictor
Basic BTB sets: 1024 ways: 8 indirect buffer size: 4096 RAS size: 64
Instruction page size distrubution: 0
Loading instruction page size distribution from /home/bsc/bsc018186/scratch/itp_asplos25_AE/dump/srv32_ap.pdst
Data page size distrubution: 0
Loading data page size distribution from /home/bsc/bsc018186/scratch/itp_asplos25_AE/dump/srv32_ap.pdst
cpu0_L2C IP-based stride prefetcher
cpu0_L2C is using PTP replacement policy:
	TLB_STRESS_THRESHOLD:0
	PTE_EVICTION_RATIO:0
cpu0_L1D next line prefetcher
CHiRPing...
cpu0_L1I next line prefetcher
Off-chip DRAM Size: 4 GiB Channels: 1 Width: 64-bit Data Rate: 3200 MT/s
Heartbeat CPU 0 instructions: 10000002 cycles: 2500125 heartbeat IPC: 3.99981 cumulative IPC: 3.99981 (Simulation time: 0 hr 0 min 37 sec) 
Heartbeat CPU 0 instructions: 20000003 cycles: 5000188 heartbeat IPC: 3.9999 cumulative IPC: 3.99986 (Simulation time: 0 hr 1 min 17 sec) 
Heartbeat CPU 0 instructions: 30000000 cycles: 7500191 heartbeat IPC: 4 cumulative IPC: 3.9999 (Simulation time: 0 hr 1 min 57 sec) 
Heartbeat CPU 0 instructions: 40000001 cycles: 10000208 heartbeat IPC: 3.99998 cumulative IPC: 3.99992 (Simulation time: 0 hr 2 min 37 sec) 
Heartbeat CPU 0 instructions: 50000002 cycles: 12500279 heartbeat IPC: 3.99989 cumulative IPC: 3.99992 (Simulation time: 0 hr 3 min 18 sec) 
Warmup finished CPU 0 instructions: 50000002 cycles: 12500280 cumulative IPC: 3.99992 (Simulation time: 0 hr 3 min 18 sec) 

Warmup complete CPU 0 instructions: 50000002 cycles: 12500280 (Simulation time: 0 hr 3 min 18 sec) 

Heartbeat CPU 0 instructions: 60000002 cycles: 30609493 heartbeat IPC: 0.552206 cumulative IPC: 0.552206 (Simulation time: 0 hr 4 min 29 sec) 
Heartbeat CPU 0 instructions: 70000000 cycles: 49909642 heartbeat IPC: 0.518131 cumulative IPC: 0.534626 (Simulation time: 0 hr 5 min 42 sec) 
Heartbeat CPU 0 instructions: 80000000 cycles: 68911051 heartbeat IPC: 0.526277 cumulative IPC: 0.531814 (Simulation time: 0 hr 6 min 54 sec) 
Heartbeat CPU 0 instructions: 90000000 cycles: 88037598 heartbeat IPC: 0.522834 cumulative IPC: 0.52954 (Simulation time: 0 hr 8 min 7 sec) 
Heartbeat CPU 0 instructions: 100000002 cycles: 107486182 heartbeat IPC: 0.514177 cumulative IPC: 0.526394 (Simulation time: 0 hr 9 min 20 sec) 
*** Reached end of trace: /gpfs/projects/bsc18/MN4/bsc18/romol/ChampSim/traces/qualcomm_srv/srv32_ap.champsimtrace.xz
Heartbeat CPU 0 instructions: 110000001 cycles: 127400887 heartbeat IPC: 0.502142 cumulative IPC: 0.522191 (Simulation time: 0 hr 10 min 33 sec) 
Heartbeat CPU 0 instructions: 120000003 cycles: 147235954 heartbeat IPC: 0.504158 cumulative IPC: 0.519536 (Simulation time: 0 hr 11 min 47 sec) 
Heartbeat CPU 0 instructions: 130000001 cycles: 167163459 heartbeat IPC: 0.501819 cumulative IPC: 0.517254 (Simulation time: 0 hr 13 min 1 sec) 
Heartbeat CPU 0 instructions: 140000004 cycles: 187436727 heartbeat IPC: 0.493261 cumulative IPC: 0.514473 (Simulation time: 0 hr 14 min 13 sec) 
Heartbeat CPU 0 instructions: 150000003 cycles: 208372916 heartbeat IPC: 0.477642 cumulative IPC: 0.510536 (Simulation time: 0 hr 15 min 27 sec) 
Simulation finished CPU 0 instructions: 100000001 cycles: 195872637 cumulative IPC: 0.510536 (Simulation time: 0 hr 15 min 27 sec) 

Simulation complete CPU 0 instructions: 100000001 cycles: 195872637 (Simulation time: 0 hr 15 min 27 sec) 


ChampSim completed all CPUs

Saving instructions large page distribution to /home/bsc/bsc018186/scratch/itp_asplos25_AE/dump/srv32_ap.pdst...
Saving data large page distribution to /home/bsc/bsc018186/scratch/itp_asplos25_AE/dump/srv32_ap.pdst...
=== Simulation ===
CPU 0 runs /gpfs/projects/bsc18/MN4/bsc18/romol/ChampSim/traces/qualcomm_srv/srv32_ap.champsimtrace.xz

Region of Interest Statistics

CPU 0 cumulative IPC: 0.510536 instructions: 100000001 cycles: 195872637
CPU 0 Branch Prediction Accuracy: 80.4054% MPKI: 35.4364 Average ROB Occupancy at Mispredict: 10.9301
Branch type MPKI
BRANCH_DIRECT_JUMP: 1.29136
BRANCH_INDIRECT: 17.8648
BRANCH_CONDITIONAL: 11.4624
BRANCH_DIRECT_CALL: 2.42607
BRANCH_INDIRECT_CALL: 0.68794
BRANCH_RETURN: 1.70384

Instructions large pages: 0
Instructions small pages: 1160
Large page distribution for instructions: 0%

Data large pages: 0
Data small pages: 5066
Large page distribution for data: 0%

cpu0_L1I TOTAL       ACCESS:   35592822  HIT:   27466484  MISS:    8126338  iACCESS:   35592822  iHIT:   27466484  iMISS:    8126338  dACCESS:          0  dHIT:          0  dMISS:          0  itACCESS:          0  itHIT:          0  itMISS:          0  dtACCESS:          0  dtHIT:          0  dtMISS:          0
cpu0_L1I LOAD         ACCESS:   10244539  HIT:    8007373  MISS:    2237166  iACCESS:   10244539  iHIT:    8007373  iMISS:    2237166  dACCESS:          0  dHIT:          0  dMISS:          0  itACCESS:          0  itHIT:          0  itMISS:          0  dtACCESS:          0  dtHIT:          0  dtMISS:          0
cpu0_L1I RFO          ACCESS:          0  HIT:          0  MISS:          0  iACCESS:          0  iHIT:          0  iMISS:          0  dACCESS:          0  dHIT:          0  dMISS:          0  itACCESS:          0  itHIT:          0  itMISS:          0  dtACCESS:          0  dtHIT:          0  dtMISS:          0
cpu0_L1I PREFETCH     ACCESS:   25348283  HIT:   19459111  MISS:    5889172  iACCESS:   25348283  iHIT:   19459111  iMISS:    5889172  dACCESS:          0  dHIT:          0  dMISS:          0  itACCESS:          0  itHIT:          0  itMISS:          0  dtACCESS:          0  dtHIT:          0  dtMISS:          0
cpu0_L1I WRITE        ACCESS:          0  HIT:          0  MISS:          0  iACCESS:          0  iHIT:          0  iMISS:          0  dACCESS:          0  dHIT:          0  dMISS:          0  itACCESS:          0  itHIT:          0  itMISS:          0  dtACCESS:          0  dtHIT:          0  dtMISS:          0
cpu0_L1I TRANSLATION  ACCESS:          0  HIT:          0  MISS:          0  iACCESS:          0  iHIT:          0  iMISS:          0  dACCESS:          0  dHIT:          0  dMISS:          0  itACCESS:          0  itHIT:          0  itMISS:          0  dtACCESS:          0  dtHIT:          0  dtMISS:          0
cpu0_L1I PREFETCH  REQUESTED:   27621907  ISSUED:   27621142  CROSSED:          0  USEFUL:    1968909  USELESS:     654195
cpu0_L1I AVERAGE iMISS LATENCY: 19.4683 cycles
cpu0_L1I AVERAGE dMISS LATENCY: 0 cycles
cpu0_L1I AVERAGE itMISS LATENCY: 0 cycles
cpu0_L1I AVERAGE dtMISS LATENCY: 0 cycles
cpu0_L1I PAGE CROSSINGS (TLB HIT):         0 
cpu0_L1I PAGE CROSSINGS (TLB MISS):         0 
cpu0_L1I AVERAGE MISS LATENCY: 19.4683 cycles
cpu0_ITLB TOTAL       ACCESS:   29900510  HIT:   27960360  MISS:    1940150  iACCESS:   29900510  iHIT:   27960360  iMISS:    1940150  dACCESS:          0  dHIT:          0  dMISS:          0  itACCESS:          0  itHIT:          0  itMISS:          0  dtACCESS:          0  dtHIT:          0  dtMISS:          0
cpu0_ITLB LOAD         ACCESS:   29900510  HIT:   27960360  MISS:    1940150  iACCESS:   29900510  iHIT:   27960360  iMISS:    1940150  dACCESS:          0  dHIT:          0  dMISS:          0  itACCESS:          0  itHIT:          0  itMISS:          0  dtACCESS:          0  dtHIT:          0  dtMISS:          0
cpu0_ITLB RFO          ACCESS:          0  HIT:          0  MISS:          0  iACCESS:          0  iHIT:          0  iMISS:          0  dACCESS:          0  dHIT:          0  dMISS:          0  itACCESS:          0  itHIT:          0  itMISS:          0  dtACCESS:          0  dtHIT:          0  dtMISS:          0
cpu0_ITLB PREFETCH     ACCESS:          0  HIT:          0  MISS:          0  iACCESS:          0  iHIT:          0  iMISS:          0  dACCESS:          0  dHIT:          0  dMISS:          0  itACCESS:          0  itHIT:          0  itMISS:          0  dtACCESS:          0  dtHIT:          0  dtMISS:          0
cpu0_ITLB WRITE        ACCESS:          0  HIT:          0  MISS:          0  iACCESS:          0  iHIT:          0  iMISS:          0  dACCESS:          0  dHIT:          0  dMISS:          0  itACCESS:          0  itHIT:          0  itMISS:          0  dtACCESS:          0  dtHIT:          0  dtMISS:          0
cpu0_ITLB TRANSLATION  ACCESS:          0  HIT:          0  MISS:          0  iACCESS:          0  iHIT:          0  iMISS:          0  dACCESS:          0  dHIT:          0  dMISS:          0  itACCESS:          0  itHIT:          0  itMISS:          0  dtACCESS:          0  dtHIT:          0  dtMISS:          0
cpu0_ITLB PREFETCH  REQUESTED:          0  ISSUED:          0  CROSSED:          0  USEFUL:     329904  USELESS:      61137
cpu0_ITLB AVERAGE iMISS LATENCY: 5.76592 cycles
cpu0_ITLB AVERAGE dMISS LATENCY: 0 cycles
cpu0_ITLB AVERAGE itMISS LATENCY: 0 cycles
cpu0_ITLB AVERAGE dtMISS LATENCY: 0 cycles
cpu0_ITLB PAGE CROSSINGS (TLB HIT):         0 
cpu0_ITLB PAGE CROSSINGS (TLB MISS):         0 
cpu0_ITLB AVERAGE MISS LATENCY: 5.76592 cycles
cpu0_DTLB TOTAL       ACCESS:   28098581  HIT:   26343308  MISS:    1755273  iACCESS:          0  iHIT:          0  iMISS:          0  dACCESS:   28098581  dHIT:   26343308  dMISS:    1755273  itACCESS:          0  itHIT:          0  itMISS:          0  dtACCESS:          0  dtHIT:          0  dtMISS:          0
cpu0_DTLB LOAD         ACCESS:   28098581  HIT:   26343308  MISS:    1755273  iACCESS:          0  iHIT:          0  iMISS:          0  dACCESS:   28098581  dHIT:   26343308  dMISS:    1755273  itACCESS:          0  itHIT:          0  itMISS:          0  dtACCESS:          0  dtHIT:          0  dtMISS:          0
cpu0_DTLB RFO          ACCESS:          0  HIT:          0  MISS:          0  iACCESS:          0  iHIT:          0  iMISS:          0  dACCESS:          0  dHIT:          0  dMISS:          0  itACCESS:          0  itHIT:          0  itMISS:          0  dtACCESS:          0  dtHIT:          0  dtMISS:          0
cpu0_DTLB PREFETCH     ACCESS:          0  HIT:          0  MISS:          0  iACCESS:          0  iHIT:          0  iMISS:          0  dACCESS:          0  dHIT:          0  dMISS:          0  itACCESS:          0  itHIT:          0  itMISS:          0  dtACCESS:          0  dtHIT:          0  dtMISS:          0
cpu0_DTLB WRITE        ACCESS:          0  HIT:          0  MISS:          0  iACCESS:          0  iHIT:          0  iMISS:          0  dACCESS:          0  dHIT:          0  dMISS:          0  itACCESS:          0  itHIT:          0  itMISS:          0  dtACCESS:          0  dtHIT:          0  dtMISS:          0
cpu0_DTLB TRANSLATION  ACCESS:          0  HIT:          0  MISS:          0  iACCESS:          0  iHIT:          0  iMISS:          0  dACCESS:          0  dHIT:          0  dMISS:          0  itACCESS:          0  itHIT:          0  itMISS:          0  dtACCESS:          0  dtHIT:          0  dtMISS:          0
cpu0_DTLB PREFETCH  REQUESTED:          0  ISSUED:          0  CROSSED:          0  USEFUL:          0  USELESS:          0
cpu0_DTLB AVERAGE iMISS LATENCY: 0 cycles
cpu0_DTLB AVERAGE dMISS LATENCY: 16.652 cycles
cpu0_DTLB AVERAGE itMISS LATENCY: 0 cycles
cpu0_DTLB AVERAGE dtMISS LATENCY: 0 cycles
cpu0_DTLB PAGE CROSSINGS (TLB HIT):         0 
cpu0_DTLB PAGE CROSSINGS (TLB MISS):         0 
cpu0_DTLB AVERAGE MISS LATENCY: 16.652 cycles
cpu0_STLB TOTAL       ACCESS:    1501524  HIT:    1270237  MISS:     231287  iACCESS:     391064  iHIT:     303291  iMISS:      87773  dACCESS:    1110460  dHIT:     966946  dMISS:     143514  itACCESS:          0  itHIT:          0  itMISS:          0  dtACCESS:          0  dtHIT:          0  dtMISS:          0
cpu0_STLB LOAD         ACCESS:    1501524  HIT:    1270237  MISS:     231287  iACCESS:     391064  iHIT:     303291  iMISS:      87773  dACCESS:    1110460  dHIT:     966946  dMISS:     143514  itACCESS:          0  itHIT:          0  itMISS:          0  dtACCESS:          0  dtHIT:          0  dtMISS:          0
cpu0_STLB RFO          ACCESS:          0  HIT:          0  MISS:          0  iACCESS:          0  iHIT:          0  iMISS:          0  dACCESS:          0  dHIT:          0  dMISS:          0  itACCESS:          0  itHIT:          0  itMISS:          0  dtACCESS:          0  dtHIT:          0  dtMISS:          0
cpu0_STLB PREFETCH     ACCESS:          0  HIT:          0  MISS:          0  iACCESS:          0  iHIT:          0  iMISS:          0  dACCESS:          0  dHIT:          0  dMISS:          0  itACCESS:          0  itHIT:          0  itMISS:          0  dtACCESS:          0  dtHIT:          0  dtMISS:          0
cpu0_STLB WRITE        ACCESS:          0  HIT:          0  MISS:          0  iACCESS:          0  iHIT:          0  iMISS:          0  dACCESS:          0  dHIT:          0  dMISS:          0  itACCESS:          0  itHIT:          0  itMISS:          0  dtACCESS:          0  dtHIT:          0  dtMISS:          0
cpu0_STLB TRANSLATION  ACCESS:          0  HIT:          0  MISS:          0  iACCESS:          0  iHIT:          0  iMISS:          0  dACCESS:          0  dHIT:          0  dMISS:          0  itACCESS:          0  itHIT:          0  itMISS:          0  dtACCESS:          0  dtHIT:          0  dtMISS:          0
cpu0_STLB PREFETCH  REQUESTED:          0  ISSUED:          0  CROSSED:          0  USEFUL:          0  USELESS:          0
cpu0_STLB AVERAGE iMISS LATENCY: 34.8749 cycles
cpu0_STLB AVERAGE dMISS LATENCY: 87.8927 cycles
cpu0_STLB AVERAGE itMISS LATENCY: 0 cycles
cpu0_STLB AVERAGE dtMISS LATENCY: 0 cycles
cpu0_STLB PAGE CROSSINGS (TLB HIT):         0 
cpu0_STLB PAGE CROSSINGS (TLB MISS):         0 
cpu0_STLB AVERAGE MISS LATENCY: 122.768 cycles
cpu0_L1D TOTAL       ACCESS:   42867852  HIT:   38534399  MISS:    4333453  iACCESS:          0  iHIT:          0  iMISS:          0  dACCESS:   42571152  dHIT:   38507452  dMISS:    4063700  itACCESS:      94241  itHIT:      15182  itMISS:      79059  dtACCESS:     202459  dtHIT:      11765  dtMISS:     190694
cpu0_L1D LOAD         ACCESS:   19552822  HIT:   17700123  MISS:    1852699  iACCESS:          0  iHIT:          0  iMISS:          0  dACCESS:   19552822  dHIT:   17700123  dMISS:    1852699  itACCESS:          0  itHIT:          0  itMISS:          0  dtACCESS:          0  dtHIT:          0  dtMISS:          0
cpu0_L1D RFO          ACCESS:          0  HIT:          0  MISS:          0  iACCESS:          0  iHIT:          0  iMISS:          0  dACCESS:          0  dHIT:          0  dMISS:          0  itACCESS:          0  itHIT:          0  itMISS:          0  dtACCESS:          0  dtHIT:          0  dtMISS:          0
cpu0_L1D PREFETCH     ACCESS:   12809312  HIT:   11090225  MISS:    1719087  iACCESS:          0  iHIT:          0  iMISS:          0  dACCESS:   12809312  dHIT:   11090225  dMISS:    1719087  itACCESS:          0  itHIT:          0  itMISS:          0  dtACCESS:          0  dtHIT:          0  dtMISS:          0
cpu0_L1D WRITE        ACCESS:   10209018  HIT:    9717104  MISS:     491914  iACCESS:          0  iHIT:          0  iMISS:          0  dACCESS:   10209018  dHIT:    9717104  dMISS:     491914  itACCESS:          0  itHIT:          0  itMISS:          0  dtACCESS:          0  dtHIT:          0  dtMISS:          0
cpu0_L1D TRANSLATION  ACCESS:     296700  HIT:      26947  MISS:     269753  iACCESS:          0  iHIT:          0  iMISS:          0  dACCESS:          0  dHIT:          0  dMISS:          0  itACCESS:      94241  itHIT:      15182  itMISS:      79059  dtACCESS:     202459  dtHIT:      11765  dtMISS:     190694
cpu0_L1D PREFETCH  REQUESTED:   19552822  ISSUED:   17254991  CROSSED:          0  USEFUL:     309457  USELESS:     702214
cpu0_L1D AVERAGE iMISS LATENCY: 0 cycles
cpu0_L1D AVERAGE dMISS LATENCY: 39.9886 cycles
cpu0_L1D AVERAGE itMISS LATENCY: 1.68291 cycles
cpu0_L1D AVERAGE dtMISS LATENCY: 4.2274 cycles
cpu0_L1D PAGE CROSSINGS (TLB HIT):         0 
cpu0_L1D PAGE CROSSINGS (TLB MISS):         0 
cpu0_L1D AVERAGE MISS LATENCY: 45.8989 cycles
cpu0_L2C TOTAL       ACCESS:    7243556  HIT:    2335452  MISS:    4908104  iACCESS:    3351785  iHIT:    1282409  iMISS:    2069376  dACCESS:    3633310  dHIT:     937240  dMISS:    2696070  itACCESS:      79059  itHIT:      36933  itMISS:      42126  dtACCESS:     179402  dtHIT:      78870  dtMISS:     100532
cpu0_L2C LOAD         ACCESS:    1715559  HIT:     475143  MISS:    1240416  iACCESS:     765123  iHIT:     267122  iMISS:     498001  dACCESS:     950436  dHIT:     208021  dMISS:     742415  itACCESS:          0  itHIT:          0  itMISS:          0  dtACCESS:          0  dtHIT:          0  dtMISS:          0
cpu0_L2C RFO          ACCESS:     165326  HIT:      32236  MISS:     133090  iACCESS:          0  iHIT:          0  iMISS:          0  dACCESS:     165326  dHIT:      32236  dMISS:     133090  itACCESS:          0  itHIT:          0  itMISS:          0  dtACCESS:          0  dtHIT:          0  dtMISS:          0
cpu0_L2C PREFETCH     ACCESS:    4828410  HIT:    1562898  MISS:    3265512  iACCESS:    2586662  iHIT:    1015287  iMISS:    1571375  dACCESS:    2241748  dHIT:     547611  dMISS:    1694137  itACCESS:          0  itHIT:          0  itMISS:          0  dtACCESS:          0  dtHIT:          0  dtMISS:          0
cpu0_L2C WRITE        ACCESS:     275800  HIT:     149372  MISS:     126428  iACCESS:          0  iHIT:          0  iMISS:          0  dACCESS:     275800  dHIT:     149372  dMISS:     126428  itACCESS:          0  itHIT:          0  itMISS:          0  dtACCESS:          0  dtHIT:          0  dtMISS:          0
cpu0_L2C TRANSLATION  ACCESS:     258461  HIT:     115803  MISS:     142658  iACCESS:          0  iHIT:          0  iMISS:          0  dACCESS:          0  dHIT:          0  dMISS:          0  itACCESS:      79059  itHIT:      36933  itMISS:      42126  dtACCESS:     179402  dtHIT:      78870  dtMISS:     100532
cpu0_L2C PREFETCH  REQUESTED:    1487310  ISSUED:    1487164  CROSSED:          0  USEFUL:     389927  USELESS:     375295
cpu0_L2C AVERAGE iMISS LATENCY: 26.1932 cycles
cpu0_L2C AVERAGE dMISS LATENCY: 44.7522 cycles
cpu0_L2C AVERAGE itMISS LATENCY: 1.33183 cycles
cpu0_L2C AVERAGE dtMISS LATENCY: 3.38136 cycles
cpu0_L2C PAGE CROSSINGS (TLB HIT):         0 
cpu0_L2C PAGE CROSSINGS (TLB MISS):         0 
cpu0_L2C AVERAGE MISS LATENCY: 75.6585 cycles
LLC TOTAL       ACCESS:    4801465  HIT:    3050391  MISS:    1751074  iACCESS:    1990700  iHIT:    1385763  iMISS:     604937  dACCESS:    2668107  dHIT:    1632828  dMISS:    1035279  itACCESS:      42126  itHIT:       9382  itMISS:      32744  dtACCESS:     100532  dtHIT:      22418  dtMISS:      78114
LLC LOAD         ACCESS:    1233709  HIT:     844186  MISS:     389523  iACCESS:     496566  iHIT:     373006  iMISS:     123560  dACCESS:     737143  dHIT:     471180  dMISS:     265963  itACCESS:          0  itHIT:          0  itMISS:          0  dtACCESS:          0  dtHIT:          0  dtMISS:          0
LLC RFO          ACCESS:     133063  HIT:      68391  MISS:      64672  iACCESS:          0  iHIT:          0  iMISS:          0  dACCESS:     133063  dHIT:      68391  dMISS:      64672  itACCESS:          0  itHIT:          0  itMISS:          0  dtACCESS:          0  dtHIT:          0  dtMISS:          0
LLC PREFETCH     ACCESS:    3088016  HIT:    1906076  MISS:    1181940  iACCESS:    1494134  iHIT:    1012757  iMISS:     481377  dACCESS:    1593882  dHIT:     893319  dMISS:     700563  itACCESS:          0  itHIT:          0  itMISS:          0  dtACCESS:          0  dtHIT:          0  dtMISS:          0
LLC WRITE        ACCESS:     204019  HIT:     199938  MISS:       4081  iACCESS:          0  iHIT:          0  iMISS:          0  dACCESS:     204019  dHIT:     199938  dMISS:       4081  itACCESS:          0  itHIT:          0  itMISS:          0  dtACCESS:          0  dtHIT:          0  dtMISS:          0
LLC TRANSLATION  ACCESS:     142658  HIT:      31800  MISS:     110858  iACCESS:          0  iHIT:          0  iMISS:          0  dACCESS:          0  dHIT:          0  dMISS:          0  itACCESS:      42126  itHIT:       9382  itMISS:      32744  dtACCESS:     100532  dtHIT:      22418  dtMISS:      78114
LLC PREFETCH  REQUESTED:          0  ISSUED:          0  CROSSED:          0  USEFUL:          0  USELESS:          0
LLC AVERAGE iMISS LATENCY: 51.3301 cycles
LLC AVERAGE dMISS LATENCY: 99.1276 cycles
LLC AVERAGE itMISS LATENCY: 3.25864 cycles
LLC AVERAGE dtMISS LATENCY: 8.34748 cycles
LLC PAGE CROSSINGS (TLB HIT):         0 
LLC PAGE CROSSINGS (TLB MISS):         0 
LLC AVERAGE MISS LATENCY: 162.064 cycles

PageTableWalker TOTAL       ACCESS:     117516  
PageTableWalker AVERAGE LATENCY: 3.81432 cycles
PageTableWalker TOTAL LATENCY: 448243 cycles

DRAM Statistics
Channel 0
 RQ ROW_BUFFER_HIT:     474699
  ROW_BUFFER_MISS:    1258899
 AVG DBUS CONGESTED CYCLE:    3.64072
 WQ ROW_BUFFER_HIT:      40703
  ROW_BUFFER_MISS:      32961  FULL:          0

