last_page:0x200000000000000
VMEM_RES_CAP:0x100000
PAGE_SIZE:4096
LOG2_PAGE_SIZE:12
LOG2_PAGE_TABLE_SIZE:9
page_table_levels:5
WARNING: physical memory size is smaller than virtual memory size
FDiP enabled with aggresivity 16

*** ChampSim Multicore Out-of-Order Simulator ***

Warmup Instructions: 50000000
Simulation Instructions: 100000000
Number of CPUs: 1
Small page size: 4096
Large page size: 2097152

CPU 0 Bimodal branch predictor
Basic BTB sets: 1024 ways: 8 indirect buffer size: 4096 RAS size: 64
Instruction page size distrubution: 0
Loading instruction page size distribution from /home/bsc/bsc018186/scratch/itp_asplos25_AE/dump/srv358_ap.pdst
Data page size distrubution: 0
Loading data page size distribution from /home/bsc/bsc018186/scratch/itp_asplos25_AE/dump/srv358_ap.pdst
cpu0_L2C IP-based stride prefetcher
cpu0_L2C is using PTP replacement policy:
	TLB_STRESS_THRESHOLD:0
	PTE_EVICTION_RATIO:0
cpu0_L1D next line prefetcher
CHiRPing...
cpu0_L1I next line prefetcher
Off-chip DRAM Size: 4 GiB Channels: 1 Width: 64-bit Data Rate: 3200 MT/s
Heartbeat CPU 0 instructions: 10000003 cycles: 2500203 heartbeat IPC: 3.99968 cumulative IPC: 3.99968 (Simulation time: 0 hr 0 min 39 sec) 
Heartbeat CPU 0 instructions: 20000000 cycles: 5000215 heartbeat IPC: 3.99998 cumulative IPC: 3.99983 (Simulation time: 0 hr 1 min 19 sec) 
Heartbeat CPU 0 instructions: 30000001 cycles: 7500222 heartbeat IPC: 3.99999 cumulative IPC: 3.99989 (Simulation time: 0 hr 1 min 59 sec) 
Heartbeat CPU 0 instructions: 40000003 cycles: 10000319 heartbeat IPC: 3.99985 cumulative IPC: 3.99988 (Simulation time: 0 hr 2 min 40 sec) 
Heartbeat CPU 0 instructions: 50000000 cycles: 12500347 heartbeat IPC: 3.99996 cumulative IPC: 3.99989 (Simulation time: 0 hr 3 min 21 sec) 
Warmup finished CPU 0 instructions: 50000000 cycles: 12500348 cumulative IPC: 3.99989 (Simulation time: 0 hr 3 min 21 sec) 

Warmup complete CPU 0 instructions: 50000000 cycles: 12500348 (Simulation time: 0 hr 3 min 21 sec) 

Heartbeat CPU 0 instructions: 60000003 cycles: 26854257 heartbeat IPC: 0.696675 cumulative IPC: 0.696675 (Simulation time: 0 hr 4 min 25 sec) 
Heartbeat CPU 0 instructions: 70000000 cycles: 40609918 heartbeat IPC: 0.726974 cumulative IPC: 0.711502 (Simulation time: 0 hr 5 min 28 sec) 
Heartbeat CPU 0 instructions: 80000000 cycles: 54957999 heartbeat IPC: 0.696958 cumulative IPC: 0.706587 (Simulation time: 0 hr 6 min 32 sec) 
Heartbeat CPU 0 instructions: 90000000 cycles: 68476847 heartbeat IPC: 0.739708 cumulative IPC: 0.714586 (Simulation time: 0 hr 7 min 35 sec) 
Heartbeat CPU 0 instructions: 100000000 cycles: 83520366 heartbeat IPC: 0.664739 cumulative IPC: 0.704027 (Simulation time: 0 hr 8 min 40 sec) 
*** Reached end of trace: /gpfs/projects/bsc18/MN4/bsc18/romol/ChampSim/traces/qualcomm_srv/srv358_ap.champsimtrace.xz
Heartbeat CPU 0 instructions: 110000004 cycles: 98038361 heartbeat IPC: 0.688801 cumulative IPC: 0.701443 (Simulation time: 0 hr 9 min 44 sec) 
Heartbeat CPU 0 instructions: 120000002 cycles: 112339976 heartbeat IPC: 0.699222 cumulative IPC: 0.701125 (Simulation time: 0 hr 10 min 47 sec) 
Heartbeat CPU 0 instructions: 130000001 cycles: 126337993 heartbeat IPC: 0.714387 cumulative IPC: 0.702756 (Simulation time: 0 hr 11 min 51 sec) 
Heartbeat CPU 0 instructions: 140000003 cycles: 141009831 heartbeat IPC: 0.681578 cumulative IPC: 0.700338 (Simulation time: 0 hr 12 min 55 sec) 
Heartbeat CPU 0 instructions: 150000002 cycles: 155535188 heartbeat IPC: 0.688452 cumulative IPC: 0.699131 (Simulation time: 0 hr 13 min 59 sec) 
Simulation finished CPU 0 instructions: 100000002 cycles: 143034841 cumulative IPC: 0.699131 (Simulation time: 0 hr 13 min 59 sec) 

Simulation complete CPU 0 instructions: 100000002 cycles: 143034841 (Simulation time: 0 hr 13 min 59 sec) 


ChampSim completed all CPUs

Saving instructions large page distribution to /home/bsc/bsc018186/scratch/itp_asplos25_AE/dump/srv358_ap.pdst...
Saving data large page distribution to /home/bsc/bsc018186/scratch/itp_asplos25_AE/dump/srv358_ap.pdst...
=== Simulation ===
CPU 0 runs /gpfs/projects/bsc18/MN4/bsc18/romol/ChampSim/traces/qualcomm_srv/srv358_ap.champsimtrace.xz

Region of Interest Statistics

CPU 0 cumulative IPC: 0.699131 instructions: 100000002 cycles: 143034841
CPU 0 Branch Prediction Accuracy: 82.9127% MPKI: 30.5285 Average ROB Occupancy at Mispredict: 12.2126
Branch type MPKI
BRANCH_DIRECT_JUMP: 1.0344
BRANCH_INDIRECT: 15.5752
BRANCH_CONDITIONAL: 10.1891
BRANCH_DIRECT_CALL: 1.87359
BRANCH_INDIRECT_CALL: 0.51604
BRANCH_RETURN: 1.34027

Instructions large pages: 0
Instructions small pages: 1010
Large page distribution for instructions: 0%

Data large pages: 0
Data small pages: 9666
Large page distribution for data: 0%

cpu0_L1I TOTAL       ACCESS:   35554718  HIT:   27020614  MISS:    8534104  iACCESS:   35554718  iHIT:   27020614  iMISS:    8534104  dACCESS:          0  dHIT:          0  dMISS:          0  itACCESS:          0  itHIT:          0  itMISS:          0  dtACCESS:          0  dtHIT:          0  dtMISS:          0
cpu0_L1I LOAD         ACCESS:   10418203  HIT:    8027482  MISS:    2390721  iACCESS:   10418203  iHIT:    8027482  iMISS:    2390721  dACCESS:          0  dHIT:          0  dMISS:          0  itACCESS:          0  itHIT:          0  itMISS:          0  dtACCESS:          0  dtHIT:          0  dtMISS:          0
cpu0_L1I RFO          ACCESS:          0  HIT:          0  MISS:          0  iACCESS:          0  iHIT:          0  iMISS:          0  dACCESS:          0  dHIT:          0  dMISS:          0  itACCESS:          0  itHIT:          0  itMISS:          0  dtACCESS:          0  dtHIT:          0  dtMISS:          0
cpu0_L1I PREFETCH     ACCESS:   25136515  HIT:   18993132  MISS:    6143383  iACCESS:   25136515  iHIT:   18993132  iMISS:    6143383  dACCESS:          0  dHIT:          0  dMISS:          0  itACCESS:          0  itHIT:          0  itMISS:          0  dtACCESS:          0  dtHIT:          0  dtMISS:          0
cpu0_L1I WRITE        ACCESS:          0  HIT:          0  MISS:          0  iACCESS:          0  iHIT:          0  iMISS:          0  dACCESS:          0  dHIT:          0  dMISS:          0  itACCESS:          0  itHIT:          0  itMISS:          0  dtACCESS:          0  dtHIT:          0  dtMISS:          0
cpu0_L1I TRANSLATION  ACCESS:          0  HIT:          0  MISS:          0  iACCESS:          0  iHIT:          0  iMISS:          0  dACCESS:          0  dHIT:          0  dMISS:          0  itACCESS:          0  itHIT:          0  itMISS:          0  dtACCESS:          0  dtHIT:          0  dtMISS:          0
cpu0_L1I PREFETCH  REQUESTED:   27403258  ISSUED:   27399129  CROSSED:          0  USEFUL:    1940112  USELESS:     624617
cpu0_L1I AVERAGE iMISS LATENCY: 13.9937 cycles
cpu0_L1I AVERAGE dMISS LATENCY: 0 cycles
cpu0_L1I AVERAGE itMISS LATENCY: 0 cycles
cpu0_L1I AVERAGE dtMISS LATENCY: 0 cycles
cpu0_L1I PAGE CROSSINGS (TLB HIT):         0 
cpu0_L1I PAGE CROSSINGS (TLB MISS):         0 
cpu0_L1I AVERAGE MISS LATENCY: 13.9937 cycles
cpu0_ITLB TOTAL       ACCESS:   29350082  HIT:   27428967  MISS:    1921115  iACCESS:   29350082  iHIT:   27428967  iMISS:    1921115  dACCESS:          0  dHIT:          0  dMISS:          0  itACCESS:          0  itHIT:          0  itMISS:          0  dtACCESS:          0  dtHIT:          0  dtMISS:          0
cpu0_ITLB LOAD         ACCESS:   29350082  HIT:   27428967  MISS:    1921115  iACCESS:   29350082  iHIT:   27428967  iMISS:    1921115  dACCESS:          0  dHIT:          0  dMISS:          0  itACCESS:          0  itHIT:          0  itMISS:          0  dtACCESS:          0  dtHIT:          0  dtMISS:          0
cpu0_ITLB RFO          ACCESS:          0  HIT:          0  MISS:          0  iACCESS:          0  iHIT:          0  iMISS:          0  dACCESS:          0  dHIT:          0  dMISS:          0  itACCESS:          0  itHIT:          0  itMISS:          0  dtACCESS:          0  dtHIT:          0  dtMISS:          0
cpu0_ITLB PREFETCH     ACCESS:          0  HIT:          0  MISS:          0  iACCESS:          0  iHIT:          0  iMISS:          0  dACCESS:          0  dHIT:          0  dMISS:          0  itACCESS:          0  itHIT:          0  itMISS:          0  dtACCESS:          0  dtHIT:          0  dtMISS:          0
cpu0_ITLB WRITE        ACCESS:          0  HIT:          0  MISS:          0  iACCESS:          0  iHIT:          0  iMISS:          0  dACCESS:          0  dHIT:          0  dMISS:          0  itACCESS:          0  itHIT:          0  itMISS:          0  dtACCESS:          0  dtHIT:          0  dtMISS:          0
cpu0_ITLB TRANSLATION  ACCESS:          0  HIT:          0  MISS:          0  iACCESS:          0  iHIT:          0  iMISS:          0  dACCESS:          0  dHIT:          0  dMISS:          0  itACCESS:          0  itHIT:          0  itMISS:          0  dtACCESS:          0  dtHIT:          0  dtMISS:          0
cpu0_ITLB PREFETCH  REQUESTED:          0  ISSUED:          0  CROSSED:          0  USEFUL:     316287  USELESS:      63674
cpu0_ITLB AVERAGE iMISS LATENCY: 2.89921 cycles
cpu0_ITLB AVERAGE dMISS LATENCY: 0 cycles
cpu0_ITLB AVERAGE itMISS LATENCY: 0 cycles
cpu0_ITLB AVERAGE dtMISS LATENCY: 0 cycles
cpu0_ITLB PAGE CROSSINGS (TLB HIT):         0 
cpu0_ITLB PAGE CROSSINGS (TLB MISS):         0 
cpu0_ITLB AVERAGE MISS LATENCY: 2.89921 cycles
cpu0_DTLB TOTAL       ACCESS:   27746145  HIT:   25672277  MISS:    2073868  iACCESS:          0  iHIT:          0  iMISS:          0  dACCESS:   27746145  dHIT:   25672277  dMISS:    2073868  itACCESS:          0  itHIT:          0  itMISS:          0  dtACCESS:          0  dtHIT:          0  dtMISS:          0
cpu0_DTLB LOAD         ACCESS:   27746145  HIT:   25672277  MISS:    2073868  iACCESS:          0  iHIT:          0  iMISS:          0  dACCESS:   27746145  dHIT:   25672277  dMISS:    2073868  itACCESS:          0  itHIT:          0  itMISS:          0  dtACCESS:          0  dtHIT:          0  dtMISS:          0
cpu0_DTLB RFO          ACCESS:          0  HIT:          0  MISS:          0  iACCESS:          0  iHIT:          0  iMISS:          0  dACCESS:          0  dHIT:          0  dMISS:          0  itACCESS:          0  itHIT:          0  itMISS:          0  dtACCESS:          0  dtHIT:          0  dtMISS:          0
cpu0_DTLB PREFETCH     ACCESS:          0  HIT:          0  MISS:          0  iACCESS:          0  iHIT:          0  iMISS:          0  dACCESS:          0  dHIT:          0  dMISS:          0  itACCESS:          0  itHIT:          0  itMISS:          0  dtACCESS:          0  dtHIT:          0  dtMISS:          0
cpu0_DTLB WRITE        ACCESS:          0  HIT:          0  MISS:          0  iACCESS:          0  iHIT:          0  iMISS:          0  dACCESS:          0  dHIT:          0  dMISS:          0  itACCESS:          0  itHIT:          0  itMISS:          0  dtACCESS:          0  dtHIT:          0  dtMISS:          0
cpu0_DTLB TRANSLATION  ACCESS:          0  HIT:          0  MISS:          0  iACCESS:          0  iHIT:          0  iMISS:          0  dACCESS:          0  dHIT:          0  dMISS:          0  itACCESS:          0  itHIT:          0  itMISS:          0  dtACCESS:          0  dtHIT:          0  dtMISS:          0
cpu0_DTLB PREFETCH  REQUESTED:          0  ISSUED:          0  CROSSED:          0  USEFUL:          0  USELESS:          0
cpu0_DTLB AVERAGE iMISS LATENCY: 0 cycles
cpu0_DTLB AVERAGE dMISS LATENCY: 9.03172 cycles
cpu0_DTLB AVERAGE itMISS LATENCY: 0 cycles
cpu0_DTLB AVERAGE dtMISS LATENCY: 0 cycles
cpu0_DTLB PAGE CROSSINGS (TLB HIT):         0 
cpu0_DTLB PAGE CROSSINGS (TLB MISS):         0 
cpu0_DTLB AVERAGE MISS LATENCY: 9.03172 cycles
cpu0_STLB TOTAL       ACCESS:    1617042  HIT:    1449647  MISS:     167395  iACCESS:     379985  iHIT:     321714  iMISS:      58271  dACCESS:    1237057  dHIT:    1127933  dMISS:     109124  itACCESS:          0  itHIT:          0  itMISS:          0  dtACCESS:          0  dtHIT:          0  dtMISS:          0
cpu0_STLB LOAD         ACCESS:    1617042  HIT:    1449647  MISS:     167395  iACCESS:     379985  iHIT:     321714  iMISS:      58271  dACCESS:    1237057  dHIT:    1127933  dMISS:     109124  itACCESS:          0  itHIT:          0  itMISS:          0  dtACCESS:          0  dtHIT:          0  dtMISS:          0
cpu0_STLB RFO          ACCESS:          0  HIT:          0  MISS:          0  iACCESS:          0  iHIT:          0  iMISS:          0  dACCESS:          0  dHIT:          0  dMISS:          0  itACCESS:          0  itHIT:          0  itMISS:          0  dtACCESS:          0  dtHIT:          0  dtMISS:          0
cpu0_STLB PREFETCH     ACCESS:          0  HIT:          0  MISS:          0  iACCESS:          0  iHIT:          0  iMISS:          0  dACCESS:          0  dHIT:          0  dMISS:          0  itACCESS:          0  itHIT:          0  itMISS:          0  dtACCESS:          0  dtHIT:          0  dtMISS:          0
cpu0_STLB WRITE        ACCESS:          0  HIT:          0  MISS:          0  iACCESS:          0  iHIT:          0  iMISS:          0  dACCESS:          0  dHIT:          0  dMISS:          0  itACCESS:          0  itHIT:          0  itMISS:          0  dtACCESS:          0  dtHIT:          0  dtMISS:          0
cpu0_STLB TRANSLATION  ACCESS:          0  HIT:          0  MISS:          0  iACCESS:          0  iHIT:          0  iMISS:          0  dACCESS:          0  dHIT:          0  dMISS:          0  itACCESS:          0  itHIT:          0  itMISS:          0  dtACCESS:          0  dtHIT:          0  dtMISS:          0
cpu0_STLB PREFETCH  REQUESTED:          0  ISSUED:          0  CROSSED:          0  USEFUL:          0  USELESS:          0
cpu0_STLB AVERAGE iMISS LATENCY: 15.3604 cycles
cpu0_STLB AVERAGE dMISS LATENCY: 53.044 cycles
cpu0_STLB AVERAGE itMISS LATENCY: 0 cycles
cpu0_STLB AVERAGE dtMISS LATENCY: 0 cycles
cpu0_STLB PAGE CROSSINGS (TLB HIT):         0 
cpu0_STLB PAGE CROSSINGS (TLB MISS):         0 
cpu0_STLB AVERAGE MISS LATENCY: 68.4044 cycles
cpu0_L1D TOTAL       ACCESS:   41593283  HIT:   38067116  MISS:    3526167  iACCESS:          0  iHIT:          0  iMISS:          0  dACCESS:   41364599  dHIT:   38047425  dMISS:    3317174  itACCESS:      63310  itHIT:       9066  itMISS:      54244  dtACCESS:     165374  dtHIT:      10625  dtMISS:     154749
cpu0_L1D LOAD         ACCESS:   18962840  HIT:   17461236  MISS:    1501604  iACCESS:          0  iHIT:          0  iMISS:          0  dACCESS:   18962840  dHIT:   17461236  dMISS:    1501604  itACCESS:          0  itHIT:          0  itMISS:          0  dtACCESS:          0  dtHIT:          0  dtMISS:          0
cpu0_L1D RFO          ACCESS:          0  HIT:          0  MISS:          0  iACCESS:          0  iHIT:          0  iMISS:          0  dACCESS:          0  dHIT:          0  dMISS:          0  itACCESS:          0  itHIT:          0  itMISS:          0  dtACCESS:          0  dtHIT:          0  dtMISS:          0
cpu0_L1D PREFETCH     ACCESS:   12227200  HIT:   10851787  MISS:    1375413  iACCESS:          0  iHIT:          0  iMISS:          0  dACCESS:   12227200  dHIT:   10851787  dMISS:    1375413  itACCESS:          0  itHIT:          0  itMISS:          0  dtACCESS:          0  dtHIT:          0  dtMISS:          0
cpu0_L1D WRITE        ACCESS:   10174559  HIT:    9734402  MISS:     440157  iACCESS:          0  iHIT:          0  iMISS:          0  dACCESS:   10174559  dHIT:    9734402  dMISS:     440157  itACCESS:          0  itHIT:          0  itMISS:          0  dtACCESS:          0  dtHIT:          0  dtMISS:          0
cpu0_L1D TRANSLATION  ACCESS:     228684  HIT:      19691  MISS:     208993  iACCESS:          0  iHIT:          0  iMISS:          0  dACCESS:          0  dHIT:          0  dMISS:          0  itACCESS:      63310  itHIT:       9066  itMISS:      54244  dtACCESS:     165374  dtHIT:      10625  dtMISS:     154749
cpu0_L1D PREFETCH  REQUESTED:   18962840  ISSUED:   17069500  CROSSED:          0  USEFUL:     307412  USELESS:     702093
cpu0_L1D AVERAGE iMISS LATENCY: 0 cycles
cpu0_L1D AVERAGE dMISS LATENCY: 34.9953 cycles
cpu0_L1D AVERAGE itMISS LATENCY: 0.587477 cycles
cpu0_L1D AVERAGE dtMISS LATENCY: 1.88043 cycles
cpu0_L1D PAGE CROSSINGS (TLB HIT):         0 
cpu0_L1D PAGE CROSSINGS (TLB MISS):         0 
cpu0_L1D AVERAGE MISS LATENCY: 37.4632 cycles
cpu0_L2C TOTAL       ACCESS:    6999519  HIT:    1204531  MISS:    5794988  iACCESS:    3300797  iHIT:     677934  iMISS:    2622863  dACCESS:    3500315  dHIT:     379045  dMISS:    3121270  itACCESS:      54244  itHIT:      41072  itMISS:      13172  dtACCESS:     144163  dtHIT:     106480  dtMISS:      37683
cpu0_L2C LOAD         ACCESS:    1702358  HIT:     125461  MISS:    1576897  iACCESS:     773350  iHIT:      87776  iMISS:     685574  dACCESS:     929008  dHIT:      37685  dMISS:     891323  itACCESS:          0  itHIT:          0  itMISS:          0  dtACCESS:          0  dtHIT:          0  dtMISS:          0
cpu0_L2C RFO          ACCESS:     158808  HIT:       8513  MISS:     150295  iACCESS:          0  iHIT:          0  iMISS:          0  dACCESS:     158808  dHIT:       8513  dMISS:     150295  itACCESS:          0  itHIT:          0  itMISS:          0  dtACCESS:          0  dtHIT:          0  dtMISS:          0
cpu0_L2C PREFETCH     ACCESS:    4659909  HIT:     864681  MISS:    3795228  iACCESS:    2527447  iHIT:     590158  iMISS:    1937289  dACCESS:    2132462  dHIT:     274523  dMISS:    1857939  itACCESS:          0  itHIT:          0  itMISS:          0  dtACCESS:          0  dtHIT:          0  dtMISS:          0
cpu0_L2C WRITE        ACCESS:     280037  HIT:      58324  MISS:     221713  iACCESS:          0  iHIT:          0  iMISS:          0  dACCESS:     280037  dHIT:      58324  dMISS:     221713  itACCESS:          0  itHIT:          0  itMISS:          0  dtACCESS:          0  dtHIT:          0  dtMISS:          0
cpu0_L2C TRANSLATION  ACCESS:     198407  HIT:     147552  MISS:      50855  iACCESS:          0  iHIT:          0  iMISS:          0  dACCESS:          0  dHIT:          0  dMISS:          0  itACCESS:      54244  itHIT:      41072  itMISS:      13172  dtACCESS:     144163  dtHIT:     106480  dtMISS:      37683
cpu0_L2C PREFETCH  REQUESTED:    1386014  ISSUED:    1386014  CROSSED:          0  USEFUL:     431196  USELESS:     391290
cpu0_L2C AVERAGE iMISS LATENCY: 15.3612 cycles
cpu0_L2C AVERAGE dMISS LATENCY: 24.819 cycles
cpu0_L2C AVERAGE itMISS LATENCY: 0.270747 cycles
cpu0_L2C AVERAGE dtMISS LATENCY: 0.912536 cycles
cpu0_L2C PAGE CROSSINGS (TLB HIT):         0 
cpu0_L2C PAGE CROSSINGS (TLB MISS):         0 
cpu0_L2C AVERAGE MISS LATENCY: 41.3634 cycles
LLC TOTAL       ACCESS:    5715527  HIT:    4864567  MISS:     850960  iACCESS:    2568092  iHIT:    2297472  iMISS:     270620  dACCESS:    3096580  dHIT:    2549140  dMISS:     547440  itACCESS:      13172  itHIT:       5610  itMISS:       7562  dtACCESS:      37683  dtHIT:      12345  dtMISS:      25338
LLC LOAD         ACCESS:    1575123  HIT:    1380493  MISS:     194630  iACCESS:     684198  iHIT:     626515  iMISS:      57683  dACCESS:     890925  dHIT:     753978  dMISS:     136947  itACCESS:          0  itHIT:          0  itMISS:          0  dtACCESS:          0  dtHIT:          0  dtMISS:          0
LLC RFO          ACCESS:     150289  HIT:     114053  MISS:      36236  iACCESS:          0  iHIT:          0  iMISS:          0  dACCESS:     150289  dHIT:     114053  dMISS:      36236  itACCESS:          0  itHIT:          0  itMISS:          0  dtACCESS:          0  dtHIT:          0  dtMISS:          0
LLC PREFETCH     ACCESS:    3683904  HIT:    3096711  MISS:     587193  iACCESS:    1883894  iHIT:    1670957  iMISS:     212937  dACCESS:    1800010  dHIT:    1425754  dMISS:     374256  itACCESS:          0  itHIT:          0  itMISS:          0  dtACCESS:          0  dtHIT:          0  dtMISS:          0
LLC WRITE        ACCESS:     255356  HIT:     255355  MISS:          1  iACCESS:          0  iHIT:          0  iMISS:          0  dACCESS:     255356  dHIT:     255355  dMISS:          1  itACCESS:          0  itHIT:          0  itMISS:          0  dtACCESS:          0  dtHIT:          0  dtMISS:          0
LLC TRANSLATION  ACCESS:      50855  HIT:      17955  MISS:      32900  iACCESS:          0  iHIT:          0  iMISS:          0  dACCESS:          0  dHIT:          0  dMISS:          0  itACCESS:      13172  itHIT:       5610  itMISS:       7562  dtACCESS:      37683  dtHIT:      12345  dtMISS:      25338
LLC PREFETCH  REQUESTED:          0  ISSUED:          0  CROSSED:          0  USEFUL:          0  USELESS:          0
LLC AVERAGE iMISS LATENCY: 46.3759 cycles
LLC AVERAGE dMISS LATENCY: 104.538 cycles
LLC AVERAGE itMISS LATENCY: 1.54126 cycles
LLC AVERAGE dtMISS LATENCY: 5.34578 cycles
LLC PAGE CROSSINGS (TLB HIT):         0 
LLC PAGE CROSSINGS (TLB MISS):         0 
LLC AVERAGE MISS LATENCY: 157.801 cycles

PageTableWalker TOTAL       ACCESS:      87046  
PageTableWalker AVERAGE LATENCY: 4.20856 cycles
PageTableWalker TOTAL LATENCY: 366338 cycles

DRAM Statistics
Channel 0
 RQ ROW_BUFFER_HIT:     251141
  ROW_BUFFER_MISS:     599730
 AVG DBUS CONGESTED CYCLE:    3.64324
 WQ ROW_BUFFER_HIT:      19518
  ROW_BUFFER_MISS:      28222  FULL:          0

