last_page:0x200000000000000
VMEM_RES_CAP:0x100000
PAGE_SIZE:4096
LOG2_PAGE_SIZE:12
LOG2_PAGE_TABLE_SIZE:9
page_table_levels:5
WARNING: physical memory size is smaller than virtual memory size
FDiP enabled with aggresivity 16

*** ChampSim Multicore Out-of-Order Simulator ***

Warmup Instructions: 50000000
Simulation Instructions: 100000000
Number of CPUs: 1
Small page size: 4096
Large page size: 2097152

CPU 0 Bimodal branch predictor
Basic BTB sets: 1024 ways: 8 indirect buffer size: 4096 RAS size: 64
Instruction page size distrubution: 0
Loading instruction page size distribution from /home/bsc/bsc018186/scratch/itp_asplos25_AE/dump/srv331_ap.pdst
Data page size distrubution: 0
Loading data page size distribution from /home/bsc/bsc018186/scratch/itp_asplos25_AE/dump/srv331_ap.pdst
cpu0_L2C IP-based stride prefetcher
cpu0_L2C is using xPTP/LRU
	TLB_LOWER_STRESS_THRESHOLD:1
	TLB_UPPER_STRESS_THRESHOLD:9
	MIN_EVICTION_POSITION:4
cpu0_L1D next line prefetcher
cpu0_STLB using iTP with max lru@8
cpu0_STLB using iTP with instr@0 and data@2
Init sat counter with 3 bits (max:50).
cpu0_L1I next line prefetcher
Off-chip DRAM Size: 4 GiB Channels: 1 Width: 64-bit Data Rate: 3200 MT/s
Heartbeat CPU 0 instructions: 10000002 cycles: 2500225 heartbeat IPC: 3.99965 cumulative IPC: 3.99965 (Simulation time: 0 hr 0 min 42 sec) 
Heartbeat CPU 0 instructions: 20000002 cycles: 5000301 heartbeat IPC: 3.99988 cumulative IPC: 3.99976 (Simulation time: 0 hr 1 min 26 sec) 
Heartbeat CPU 0 instructions: 30000002 cycles: 7500392 heartbeat IPC: 3.99986 cumulative IPC: 3.9998 (Simulation time: 0 hr 2 min 7 sec) 
Heartbeat CPU 0 instructions: 40000000 cycles: 10000424 heartbeat IPC: 3.99995 cumulative IPC: 3.99984 (Simulation time: 0 hr 2 min 48 sec) 
Heartbeat CPU 0 instructions: 50000002 cycles: 12500443 heartbeat IPC: 3.99998 cumulative IPC: 3.99986 (Simulation time: 0 hr 3 min 29 sec) 
Warmup finished CPU 0 instructions: 50000002 cycles: 12500444 cumulative IPC: 3.99986 (Simulation time: 0 hr 3 min 29 sec) 

Warmup complete CPU 0 instructions: 50000002 cycles: 12500444 (Simulation time: 0 hr 3 min 29 sec) 

Heartbeat CPU 0 instructions: 60000001 cycles: 25757726 heartbeat IPC: 0.754303 cumulative IPC: 0.754303 (Simulation time: 0 hr 4 min 32 sec) 
Heartbeat CPU 0 instructions: 70000002 cycles: 38529541 heartbeat IPC: 0.782975 cumulative IPC: 0.768371 (Simulation time: 0 hr 5 min 40 sec) 
Heartbeat CPU 0 instructions: 80000001 cycles: 51921326 heartbeat IPC: 0.746727 cumulative IPC: 0.761018 (Simulation time: 0 hr 6 min 50 sec) 
Heartbeat CPU 0 instructions: 90000004 cycles: 65181649 heartbeat IPC: 0.75413 cumulative IPC: 0.759285 (Simulation time: 0 hr 7 min 58 sec) 
Heartbeat CPU 0 instructions: 100000000 cycles: 78951678 heartbeat IPC: 0.726215 cumulative IPC: 0.752432 (Simulation time: 0 hr 9 min 8 sec) 
*** Reached end of trace: /gpfs/projects/bsc18/MN4/bsc18/romol/ChampSim/traces/qualcomm_srv/srv331_ap.champsimtrace.xz
Heartbeat CPU 0 instructions: 110000003 cycles: 91886566 heartbeat IPC: 0.773104 cumulative IPC: 0.7558 (Simulation time: 0 hr 10 min 16 sec) 
Heartbeat CPU 0 instructions: 120000004 cycles: 106071296 heartbeat IPC: 0.704984 cumulative IPC: 0.748097 (Simulation time: 0 hr 11 min 26 sec) 
Heartbeat CPU 0 instructions: 130000003 cycles: 119251374 heartbeat IPC: 0.758721 cumulative IPC: 0.749409 (Simulation time: 0 hr 12 min 28 sec) 
Heartbeat CPU 0 instructions: 140000004 cycles: 132520216 heartbeat IPC: 0.753646 cumulative IPC: 0.749877 (Simulation time: 0 hr 13 min 34 sec) 
Heartbeat CPU 0 instructions: 150000000 cycles: 145264792 heartbeat IPC: 0.784648 cumulative IPC: 0.753215 (Simulation time: 0 hr 14 min 39 sec) 
Simulation finished CPU 0 instructions: 100000001 cycles: 132764351 cumulative IPC: 0.753215 (Simulation time: 0 hr 14 min 39 sec) 

Simulation complete CPU 0 instructions: 100000001 cycles: 132764351 (Simulation time: 0 hr 14 min 39 sec) 


ChampSim completed all CPUs

Saving instructions large page distribution to /home/bsc/bsc018186/scratch/itp_asplos25_AE/dump/srv331_ap.pdst...
Saving data large page distribution to /home/bsc/bsc018186/scratch/itp_asplos25_AE/dump/srv331_ap.pdst...
=== Simulation ===
CPU 0 runs /gpfs/projects/bsc18/MN4/bsc18/romol/ChampSim/traces/qualcomm_srv/srv331_ap.champsimtrace.xz

Region of Interest Statistics

CPU 0 cumulative IPC: 0.753215 instructions: 100000001 cycles: 132764351
CPU 0 Branch Prediction Accuracy: 82.5235% MPKI: 31.3422 Average ROB Occupancy at Mispredict: 12.795
Branch type MPKI
BRANCH_DIRECT_JUMP: 1.05915
BRANCH_INDIRECT: 16.2178
BRANCH_CONDITIONAL: 10.2351
BRANCH_DIRECT_CALL: 1.92153
BRANCH_INDIRECT_CALL: 0.52554
BRANCH_RETURN: 1.38307

Instructions large pages: 0
Instructions small pages: 10465
Large page distribution for instructions: 0%

Data large pages: 0
Data small pages: 9462
Large page distribution for data: 0%

cpu0_L1I TOTAL       ACCESS:   35429211  HIT:   27323727  MISS:    8105484  iACCESS:   35429211  iHIT:   27323727  iMISS:    8105484  dACCESS:          0  dHIT:          0  dMISS:          0  itACCESS:          0  itHIT:          0  itMISS:          0  dtACCESS:          0  dtHIT:          0  dtMISS:          0
cpu0_L1I LOAD         ACCESS:   10377103  HIT:    8103716  MISS:    2273387  iACCESS:   10377103  iHIT:    8103716  iMISS:    2273387  dACCESS:          0  dHIT:          0  dMISS:          0  itACCESS:          0  itHIT:          0  itMISS:          0  dtACCESS:          0  dtHIT:          0  dtMISS:          0
cpu0_L1I RFO          ACCESS:          0  HIT:          0  MISS:          0  iACCESS:          0  iHIT:          0  iMISS:          0  dACCESS:          0  dHIT:          0  dMISS:          0  itACCESS:          0  itHIT:          0  itMISS:          0  dtACCESS:          0  dtHIT:          0  dtMISS:          0
cpu0_L1I PREFETCH     ACCESS:   25052108  HIT:   19220011  MISS:    5832097  iACCESS:   25052108  iHIT:   19220011  iMISS:    5832097  dACCESS:          0  dHIT:          0  dMISS:          0  itACCESS:          0  itHIT:          0  itMISS:          0  dtACCESS:          0  dtHIT:          0  dtMISS:          0
cpu0_L1I WRITE        ACCESS:          0  HIT:          0  MISS:          0  iACCESS:          0  iHIT:          0  iMISS:          0  dACCESS:          0  dHIT:          0  dMISS:          0  itACCESS:          0  itHIT:          0  itMISS:          0  dtACCESS:          0  dtHIT:          0  dtMISS:          0
cpu0_L1I TRANSLATION  ACCESS:          0  HIT:          0  MISS:          0  iACCESS:          0  iHIT:          0  iMISS:          0  dACCESS:          0  dHIT:          0  dMISS:          0  itACCESS:          0  itHIT:          0  itMISS:          0  dtACCESS:          0  dtHIT:          0  dtMISS:          0
cpu0_L1I PREFETCH  REQUESTED:   27478606  ISSUED:   27478485  CROSSED:          0  USEFUL:    1950194  USELESS:     632705
cpu0_L1I AVERAGE iMISS LATENCY: 11.3147 cycles
cpu0_L1I AVERAGE dMISS LATENCY: 0 cycles
cpu0_L1I AVERAGE itMISS LATENCY: 0 cycles
cpu0_L1I AVERAGE dtMISS LATENCY: 0 cycles
cpu0_L1I PAGE CROSSINGS (TLB HIT):         0 
cpu0_L1I PAGE CROSSINGS (TLB MISS):         0 
cpu0_L1I AVERAGE MISS LATENCY: 11.3147 cycles
cpu0_ITLB TOTAL       ACCESS:   29488006  HIT:   27560961  MISS:    1927045  iACCESS:   29488006  iHIT:   27560961  iMISS:    1927045  dACCESS:          0  dHIT:          0  dMISS:          0  itACCESS:          0  itHIT:          0  itMISS:          0  dtACCESS:          0  dtHIT:          0  dtMISS:          0
cpu0_ITLB LOAD         ACCESS:   29488006  HIT:   27560961  MISS:    1927045  iACCESS:   29488006  iHIT:   27560961  iMISS:    1927045  dACCESS:          0  dHIT:          0  dMISS:          0  itACCESS:          0  itHIT:          0  itMISS:          0  dtACCESS:          0  dtHIT:          0  dtMISS:          0
cpu0_ITLB RFO          ACCESS:          0  HIT:          0  MISS:          0  iACCESS:          0  iHIT:          0  iMISS:          0  dACCESS:          0  dHIT:          0  dMISS:          0  itACCESS:          0  itHIT:          0  itMISS:          0  dtACCESS:          0  dtHIT:          0  dtMISS:          0
cpu0_ITLB PREFETCH     ACCESS:          0  HIT:          0  MISS:          0  iACCESS:          0  iHIT:          0  iMISS:          0  dACCESS:          0  dHIT:          0  dMISS:          0  itACCESS:          0  itHIT:          0  itMISS:          0  dtACCESS:          0  dtHIT:          0  dtMISS:          0
cpu0_ITLB WRITE        ACCESS:          0  HIT:          0  MISS:          0  iACCESS:          0  iHIT:          0  iMISS:          0  dACCESS:          0  dHIT:          0  dMISS:          0  itACCESS:          0  itHIT:          0  itMISS:          0  dtACCESS:          0  dtHIT:          0  dtMISS:          0
cpu0_ITLB TRANSLATION  ACCESS:          0  HIT:          0  MISS:          0  iACCESS:          0  iHIT:          0  iMISS:          0  dACCESS:          0  dHIT:          0  dMISS:          0  itACCESS:          0  itHIT:          0  itMISS:          0  dtACCESS:          0  dtHIT:          0  dtMISS:          0
cpu0_ITLB PREFETCH  REQUESTED:          0  ISSUED:          0  CROSSED:          0  USEFUL:     319578  USELESS:      63227
cpu0_ITLB AVERAGE iMISS LATENCY: 2.02309 cycles
cpu0_ITLB AVERAGE dMISS LATENCY: 0 cycles
cpu0_ITLB AVERAGE itMISS LATENCY: 0 cycles
cpu0_ITLB AVERAGE dtMISS LATENCY: 0 cycles
cpu0_ITLB PAGE CROSSINGS (TLB HIT):         0 
cpu0_ITLB PAGE CROSSINGS (TLB MISS):         0 
cpu0_ITLB AVERAGE MISS LATENCY: 2.02309 cycles
cpu0_DTLB TOTAL       ACCESS:   27923271  HIT:   26070806  MISS:    1852465  iACCESS:          0  iHIT:          0  iMISS:          0  dACCESS:   27923271  dHIT:   26070806  dMISS:    1852465  itACCESS:          0  itHIT:          0  itMISS:          0  dtACCESS:          0  dtHIT:          0  dtMISS:          0
cpu0_DTLB LOAD         ACCESS:   27923271  HIT:   26070806  MISS:    1852465  iACCESS:          0  iHIT:          0  iMISS:          0  dACCESS:   27923271  dHIT:   26070806  dMISS:    1852465  itACCESS:          0  itHIT:          0  itMISS:          0  dtACCESS:          0  dtHIT:          0  dtMISS:          0
cpu0_DTLB RFO          ACCESS:          0  HIT:          0  MISS:          0  iACCESS:          0  iHIT:          0  iMISS:          0  dACCESS:          0  dHIT:          0  dMISS:          0  itACCESS:          0  itHIT:          0  itMISS:          0  dtACCESS:          0  dtHIT:          0  dtMISS:          0
cpu0_DTLB PREFETCH     ACCESS:          0  HIT:          0  MISS:          0  iACCESS:          0  iHIT:          0  iMISS:          0  dACCESS:          0  dHIT:          0  dMISS:          0  itACCESS:          0  itHIT:          0  itMISS:          0  dtACCESS:          0  dtHIT:          0  dtMISS:          0
cpu0_DTLB WRITE        ACCESS:          0  HIT:          0  MISS:          0  iACCESS:          0  iHIT:          0  iMISS:          0  dACCESS:          0  dHIT:          0  dMISS:          0  itACCESS:          0  itHIT:          0  itMISS:          0  dtACCESS:          0  dtHIT:          0  dtMISS:          0
cpu0_DTLB TRANSLATION  ACCESS:          0  HIT:          0  MISS:          0  iACCESS:          0  iHIT:          0  iMISS:          0  dACCESS:          0  dHIT:          0  dMISS:          0  itACCESS:          0  itHIT:          0  itMISS:          0  dtACCESS:          0  dtHIT:          0  dtMISS:          0
cpu0_DTLB PREFETCH  REQUESTED:          0  ISSUED:          0  CROSSED:          0  USEFUL:          0  USELESS:          0
cpu0_DTLB AVERAGE iMISS LATENCY: 0 cycles
cpu0_DTLB AVERAGE dMISS LATENCY: 11.5409 cycles
cpu0_DTLB AVERAGE itMISS LATENCY: 0 cycles
cpu0_DTLB AVERAGE dtMISS LATENCY: 0 cycles
cpu0_DTLB PAGE CROSSINGS (TLB HIT):         0 
cpu0_DTLB PAGE CROSSINGS (TLB MISS):         0 
cpu0_DTLB AVERAGE MISS LATENCY: 11.5409 cycles
cpu0_STLB TOTAL       ACCESS:    1543043  HIT:    1396255  MISS:     146788  iACCESS:     382816  iHIT:     373546  iMISS:       9270  dACCESS:    1160227  dHIT:    1022709  dMISS:     137518  itACCESS:          0  itHIT:          0  itMISS:          0  dtACCESS:          0  dtHIT:          0  dtMISS:          0
cpu0_STLB LOAD         ACCESS:    1543043  HIT:    1396255  MISS:     146788  iACCESS:     382816  iHIT:     373546  iMISS:       9270  dACCESS:    1160227  dHIT:    1022709  dMISS:     137518  itACCESS:          0  itHIT:          0  itMISS:          0  dtACCESS:          0  dtHIT:          0  dtMISS:          0
cpu0_STLB RFO          ACCESS:          0  HIT:          0  MISS:          0  iACCESS:          0  iHIT:          0  iMISS:          0  dACCESS:          0  dHIT:          0  dMISS:          0  itACCESS:          0  itHIT:          0  itMISS:          0  dtACCESS:          0  dtHIT:          0  dtMISS:          0
cpu0_STLB PREFETCH     ACCESS:          0  HIT:          0  MISS:          0  iACCESS:          0  iHIT:          0  iMISS:          0  dACCESS:          0  dHIT:          0  dMISS:          0  itACCESS:          0  itHIT:          0  itMISS:          0  dtACCESS:          0  dtHIT:          0  dtMISS:          0
cpu0_STLB WRITE        ACCESS:          0  HIT:          0  MISS:          0  iACCESS:          0  iHIT:          0  iMISS:          0  dACCESS:          0  dHIT:          0  dMISS:          0  itACCESS:          0  itHIT:          0  itMISS:          0  dtACCESS:          0  dtHIT:          0  dtMISS:          0
cpu0_STLB TRANSLATION  ACCESS:          0  HIT:          0  MISS:          0  iACCESS:          0  iHIT:          0  iMISS:          0  dACCESS:          0  dHIT:          0  dMISS:          0  itACCESS:          0  itHIT:          0  itMISS:          0  dtACCESS:          0  dtHIT:          0  dtMISS:          0
cpu0_STLB PREFETCH  REQUESTED:          0  ISSUED:          0  CROSSED:          0  USEFUL:          0  USELESS:          0
cpu0_STLB AVERAGE iMISS LATENCY: 6.33213 cycles
cpu0_STLB AVERAGE dMISS LATENCY: 82.3999 cycles
cpu0_STLB AVERAGE itMISS LATENCY: 0 cycles
cpu0_STLB AVERAGE dtMISS LATENCY: 0 cycles
cpu0_STLB PAGE CROSSINGS (TLB HIT):         0 
cpu0_STLB PAGE CROSSINGS (TLB MISS):         0 
cpu0_STLB AVERAGE MISS LATENCY: 88.7321 cycles
cpu0_L1D TOTAL       ACCESS:   41692709  HIT:   38242976  MISS:    3449733  iACCESS:          0  iHIT:          0  iMISS:          0  dACCESS:   41480143  dHIT:   38229144  dMISS:    3250999  itACCESS:      10739  itHIT:       1287  itMISS:       9452  dtACCESS:     201827  dtHIT:      12545  dtMISS:     189282
cpu0_L1D LOAD         ACCESS:   19101923  HIT:   17623556  MISS:    1478367  iACCESS:          0  iHIT:          0  iMISS:          0  dACCESS:   19101923  dHIT:   17623556  dMISS:    1478367  itACCESS:          0  itHIT:          0  itMISS:          0  dtACCESS:          0  dtHIT:          0  dtMISS:          0
cpu0_L1D RFO          ACCESS:          0  HIT:          0  MISS:          0  iACCESS:          0  iHIT:          0  iMISS:          0  dACCESS:          0  dHIT:          0  dMISS:          0  itACCESS:          0  itHIT:          0  itMISS:          0  dtACCESS:          0  dtHIT:          0  dtMISS:          0
cpu0_L1D PREFETCH     ACCESS:   12165442  HIT:   10826336  MISS:    1339106  iACCESS:          0  iHIT:          0  iMISS:          0  dACCESS:   12165442  dHIT:   10826336  dMISS:    1339106  itACCESS:          0  itHIT:          0  itMISS:          0  dtACCESS:          0  dtHIT:          0  dtMISS:          0
cpu0_L1D WRITE        ACCESS:   10212778  HIT:    9779252  MISS:     433526  iACCESS:          0  iHIT:          0  iMISS:          0  dACCESS:   10212778  dHIT:    9779252  dMISS:     433526  itACCESS:          0  itHIT:          0  itMISS:          0  dtACCESS:          0  dtHIT:          0  dtMISS:          0
cpu0_L1D TRANSLATION  ACCESS:     212566  HIT:      13832  MISS:     198734  iACCESS:          0  iHIT:          0  iMISS:          0  dACCESS:          0  dHIT:          0  dMISS:          0  itACCESS:      10739  itHIT:       1287  itMISS:       9452  dtACCESS:     201827  dtHIT:      12545  dtMISS:     189282
cpu0_L1D PREFETCH  REQUESTED:   19101923  ISSUED:   16966725  CROSSED:          0  USEFUL:     308952  USELESS:     701120
cpu0_L1D AVERAGE iMISS LATENCY: 0 cycles
cpu0_L1D AVERAGE dMISS LATENCY: 29.6936 cycles
cpu0_L1D AVERAGE itMISS LATENCY: 0.240975 cycles
cpu0_L1D AVERAGE dtMISS LATENCY: 2.75316 cycles
cpu0_L1D PAGE CROSSINGS (TLB HIT):         0 
cpu0_L1D PAGE CROSSINGS (TLB MISS):         0 
cpu0_L1D AVERAGE MISS LATENCY: 32.6877 cycles
cpu0_L2C TOTAL       ACCESS:    7020515  HIT:    2639709  MISS:    4380806  iACCESS:    3325774  iHIT:    1472126  iMISS:    1853648  dACCESS:    3502771  dHIT:    1039211  dMISS:    2463560  itACCESS:       9452  itHIT:       3195  itMISS:       6257  dtACCESS:     182518  dtHIT:     125177  dtMISS:      57341
cpu0_L2C LOAD         ACCESS:    1709823  HIT:     574666  MISS:    1135157  iACCESS:     781784  iHIT:     324849  iMISS:     456935  dACCESS:     928039  dHIT:     249817  dMISS:     678222  itACCESS:          0  itHIT:          0  itMISS:          0  dtACCESS:          0  dtHIT:          0  dtMISS:          0
cpu0_L2C RFO          ACCESS:     158834  HIT:      33075  MISS:     125759  iACCESS:          0  iHIT:          0  iMISS:          0  dACCESS:     158834  dHIT:      33075  dMISS:     125759  itACCESS:          0  itHIT:          0  itMISS:          0  dtACCESS:          0  dtHIT:          0  dtMISS:          0
cpu0_L2C PREFETCH     ACCESS:    4678220  HIT:    1778336  MISS:    2899884  iACCESS:    2543990  iHIT:    1147277  iMISS:    1396713  dACCESS:    2134230  dHIT:     631059  dMISS:    1503171  itACCESS:          0  itHIT:          0  itMISS:          0  dtACCESS:          0  dtHIT:          0  dtMISS:          0
cpu0_L2C WRITE        ACCESS:     281668  HIT:     125260  MISS:     156408  iACCESS:          0  iHIT:          0  iMISS:          0  dACCESS:     281668  dHIT:     125260  dMISS:     156408  itACCESS:          0  itHIT:          0  itMISS:          0  dtACCESS:          0  dtHIT:          0  dtMISS:          0
cpu0_L2C TRANSLATION  ACCESS:     191970  HIT:     128372  MISS:      63598  iACCESS:          0  iHIT:          0  iMISS:          0  dACCESS:          0  dHIT:          0  dMISS:          0  itACCESS:       9452  itHIT:       3195  itMISS:       6257  dtACCESS:     182518  dtHIT:     125177  dtMISS:      57341
cpu0_L2C PREFETCH  REQUESTED:    1385569  ISSUED:    1385569  CROSSED:          0  USEFUL:     355840  USELESS:     323149
cpu0_L2C AVERAGE iMISS LATENCY: 13.9055 cycles
cpu0_L2C AVERAGE dMISS LATENCY: 26.0808 cycles
cpu0_L2C AVERAGE itMISS LATENCY: 0.168848 cycles
cpu0_L2C AVERAGE dtMISS LATENCY: 1.77745 cycles
cpu0_L2C PAGE CROSSINGS (TLB HIT):         0 
cpu0_L2C PAGE CROSSINGS (TLB MISS):         0 
cpu0_L2C AVERAGE MISS LATENCY: 41.9325 cycles
LLC TOTAL       ACCESS:    4333318  HIT:    3681613  MISS:     651705  iACCESS:    1807312  iHIT:    1634748  iMISS:     172564  dACCESS:    2462408  dHIT:    2024976  dMISS:     437432  itACCESS:       6257  itHIT:       2694  itMISS:       3563  dtACCESS:      57341  dtHIT:      19195  dtMISS:      38146
LLC LOAD         ACCESS:    1133423  HIT:     992208  MISS:     141215  iACCESS:     455666  iHIT:     419663  iMISS:      36003  dACCESS:     677757  dHIT:     572545  dMISS:     105212  itACCESS:          0  itHIT:          0  itMISS:          0  dtACCESS:          0  dtHIT:          0  dtMISS:          0
LLC RFO          ACCESS:     125754  HIT:      90067  MISS:      35687  iACCESS:          0  iHIT:          0  iMISS:          0  dACCESS:     125754  dHIT:      90067  dMISS:      35687  itACCESS:          0  itHIT:          0  itMISS:          0  dtACCESS:          0  dtHIT:          0  dtMISS:          0
LLC PREFETCH     ACCESS:    2809361  HIT:    2378522  MISS:     430839  iACCESS:    1351646  iHIT:    1215085  iMISS:     136561  dACCESS:    1457715  dHIT:    1163437  dMISS:     294278  itACCESS:          0  itHIT:          0  itMISS:          0  dtACCESS:          0  dtHIT:          0  dtMISS:          0
LLC WRITE        ACCESS:     201182  HIT:     198927  MISS:       2255  iACCESS:          0  iHIT:          0  iMISS:          0  dACCESS:     201182  dHIT:     198927  dMISS:       2255  itACCESS:          0  itHIT:          0  itMISS:          0  dtACCESS:          0  dtHIT:          0  dtMISS:          0
LLC TRANSLATION  ACCESS:      63598  HIT:      21889  MISS:      41709  iACCESS:          0  iHIT:          0  iMISS:          0  dACCESS:          0  dHIT:          0  dMISS:          0  itACCESS:       6257  itHIT:       2694  itMISS:       3563  dtACCESS:      57341  dtHIT:      19195  dtMISS:      38146
LLC PREFETCH  REQUESTED:          0  ISSUED:          0  CROSSED:          0  USEFUL:          0  USELESS:          0
LLC AVERAGE iMISS LATENCY: 40.0317 cycles
LLC AVERAGE dMISS LATENCY: 108.381 cycles
LLC AVERAGE itMISS LATENCY: 0.947402 cycles
LLC AVERAGE dtMISS LATENCY: 10.2205 cycles
LLC PAGE CROSSINGS (TLB HIT):         0 
LLC PAGE CROSSINGS (TLB MISS):         0 
LLC AVERAGE MISS LATENCY: 159.58 cycles

PageTableWalker TOTAL       ACCESS:      73121  
PageTableWalker AVERAGE LATENCY: 4.74938 cycles
PageTableWalker TOTAL LATENCY: 347279 cycles

DRAM Statistics
Channel 0
 RQ ROW_BUFFER_HIT:     169888
  ROW_BUFFER_MISS:     479530
 AVG DBUS CONGESTED CYCLE:    3.64935
 WQ ROW_BUFFER_HIT:      15395
  ROW_BUFFER_MISS:      25904  FULL:          0

