last_page:0x200000000000000
VMEM_RES_CAP:0x100000
PAGE_SIZE:4096
LOG2_PAGE_SIZE:12
LOG2_PAGE_TABLE_SIZE:9
page_table_levels:5
WARNING: physical memory size is smaller than virtual memory size
FDiP enabled with aggresivity 16

*** ChampSim Multicore Out-of-Order Simulator ***

Warmup Instructions: 50000000
Simulation Instructions: 100000000
Number of CPUs: 1
Small page size: 4096
Large page size: 2097152

CPU 0 Bimodal branch predictor
Basic BTB sets: 1024 ways: 8 indirect buffer size: 4096 RAS size: 64
Instruction page size distrubution: 0
Loading instruction page size distribution from /home/bsc/bsc018186/scratch/itp_asplos25_AE/dump/srv32_ap.pdst
Data page size distrubution: 0
Loading data page size distribution from /home/bsc/bsc018186/scratch/itp_asplos25_AE/dump/srv32_ap.pdst
cpu0_L2C IP-based stride prefetcher
cpu0_L1D next line prefetcher
CHiRPing...
cpu0_L1I next line prefetcher
Off-chip DRAM Size: 4 GiB Channels: 1 Width: 64-bit Data Rate: 3200 MT/s
Heartbeat CPU 0 instructions: 10000001 cycles: 2500174 heartbeat IPC: 3.99973 cumulative IPC: 3.99973 (Simulation time: 0 hr 0 min 38 sec) 
Heartbeat CPU 0 instructions: 20000001 cycles: 5000256 heartbeat IPC: 3.99987 cumulative IPC: 3.9998 (Simulation time: 0 hr 1 min 19 sec) 
Heartbeat CPU 0 instructions: 30000003 cycles: 7500295 heartbeat IPC: 3.99994 cumulative IPC: 3.99985 (Simulation time: 0 hr 2 min 1 sec) 
Heartbeat CPU 0 instructions: 40000003 cycles: 10000310 heartbeat IPC: 3.99998 cumulative IPC: 3.99988 (Simulation time: 0 hr 2 min 43 sec) 
Heartbeat CPU 0 instructions: 50000001 cycles: 12500419 heartbeat IPC: 3.99983 cumulative IPC: 3.99987 (Simulation time: 0 hr 3 min 25 sec) 
Warmup finished CPU 0 instructions: 50000001 cycles: 12500420 cumulative IPC: 3.99987 (Simulation time: 0 hr 3 min 25 sec) 

Warmup complete CPU 0 instructions: 50000001 cycles: 12500420 (Simulation time: 0 hr 3 min 25 sec) 

Heartbeat CPU 0 instructions: 60000002 cycles: 32911317 heartbeat IPC: 0.489935 cumulative IPC: 0.489935 (Simulation time: 0 hr 4 min 40 sec) 
Heartbeat CPU 0 instructions: 70000000 cycles: 54151189 heartbeat IPC: 0.470813 cumulative IPC: 0.480184 (Simulation time: 0 hr 5 min 57 sec) 
Heartbeat CPU 0 instructions: 80000000 cycles: 74739173 heartbeat IPC: 0.485721 cumulative IPC: 0.482015 (Simulation time: 0 hr 7 min 12 sec) 
Heartbeat CPU 0 instructions: 90000000 cycles: 95180606 heartbeat IPC: 0.489203 cumulative IPC: 0.483792 (Simulation time: 0 hr 8 min 28 sec) 
Heartbeat CPU 0 instructions: 100000002 cycles: 115718407 heartbeat IPC: 0.486908 cumulative IPC: 0.484412 (Simulation time: 0 hr 9 min 43 sec) 
*** Reached end of trace: /gpfs/projects/bsc18/MN4/bsc18/romol/ChampSim/traces/qualcomm_srv/srv32_ap.champsimtrace.xz
Heartbeat CPU 0 instructions: 110000001 cycles: 136645512 heartbeat IPC: 0.47785 cumulative IPC: 0.483306 (Simulation time: 0 hr 11 min 0 sec) 
Heartbeat CPU 0 instructions: 120000003 cycles: 157067899 heartbeat IPC: 0.489659 cumulative IPC: 0.484203 (Simulation time: 0 hr 12 min 15 sec) 
Heartbeat CPU 0 instructions: 130000001 cycles: 177406459 heartbeat IPC: 0.491677 cumulative IPC: 0.485125 (Simulation time: 0 hr 13 min 28 sec) 
Heartbeat CPU 0 instructions: 140000002 cycles: 197966634 heartbeat IPC: 0.486378 cumulative IPC: 0.485264 (Simulation time: 0 hr 14 min 42 sec) 
Heartbeat CPU 0 instructions: 150000002 cycles: 219274292 heartbeat IPC: 0.469315 cumulative IPC: 0.483621 (Simulation time: 0 hr 15 min 56 sec) 
Simulation finished CPU 0 instructions: 100000001 cycles: 206773873 cumulative IPC: 0.483621 (Simulation time: 0 hr 15 min 56 sec) 

Simulation complete CPU 0 instructions: 100000001 cycles: 206773873 (Simulation time: 0 hr 15 min 56 sec) 


ChampSim completed all CPUs

Saving instructions large page distribution to /home/bsc/bsc018186/scratch/itp_asplos25_AE/dump/srv32_ap.pdst...
Saving data large page distribution to /home/bsc/bsc018186/scratch/itp_asplos25_AE/dump/srv32_ap.pdst...
=== Simulation ===
CPU 0 runs /gpfs/projects/bsc18/MN4/bsc18/romol/ChampSim/traces/qualcomm_srv/srv32_ap.champsimtrace.xz

Region of Interest Statistics

CPU 0 cumulative IPC: 0.483621 instructions: 100000001 cycles: 206773873
CPU 0 Branch Prediction Accuracy: 80.4054% MPKI: 35.4364 Average ROB Occupancy at Mispredict: 11.2237
Branch type MPKI
BRANCH_DIRECT_JUMP: 1.29136
BRANCH_INDIRECT: 17.8648
BRANCH_CONDITIONAL: 11.4624
BRANCH_DIRECT_CALL: 2.42607
BRANCH_INDIRECT_CALL: 0.68794
BRANCH_RETURN: 1.70384

Instructions large pages: 0
Instructions small pages: 1160
Large page distribution for instructions: 0%

Data large pages: 0
Data small pages: 5066
Large page distribution for data: 0%

cpu0_L1I TOTAL       ACCESS:   35369756  HIT:   27530464  MISS:    7839292  iACCESS:   35369756  iHIT:   27530464  iMISS:    7839292  dACCESS:          0  dHIT:          0  dMISS:          0  itACCESS:          0  itHIT:          0  itMISS:          0  dtACCESS:          0  dtHIT:          0  dtMISS:          0
cpu0_L1I LOAD         ACCESS:   10185540  HIT:    8027272  MISS:    2158268  iACCESS:   10185540  iHIT:    8027272  iMISS:    2158268  dACCESS:          0  dHIT:          0  dMISS:          0  itACCESS:          0  itHIT:          0  itMISS:          0  dtACCESS:          0  dtHIT:          0  dtMISS:          0
cpu0_L1I RFO          ACCESS:          0  HIT:          0  MISS:          0  iACCESS:          0  iHIT:          0  iMISS:          0  dACCESS:          0  dHIT:          0  dMISS:          0  itACCESS:          0  itHIT:          0  itMISS:          0  dtACCESS:          0  dtHIT:          0  dtMISS:          0
cpu0_L1I PREFETCH     ACCESS:   25184216  HIT:   19503192  MISS:    5681024  iACCESS:   25184216  iHIT:   19503192  iMISS:    5681024  dACCESS:          0  dHIT:          0  dMISS:          0  itACCESS:          0  itHIT:          0  itMISS:          0  dtACCESS:          0  dtHIT:          0  dtMISS:          0
cpu0_L1I WRITE        ACCESS:          0  HIT:          0  MISS:          0  iACCESS:          0  iHIT:          0  iMISS:          0  dACCESS:          0  dHIT:          0  dMISS:          0  itACCESS:          0  itHIT:          0  itMISS:          0  dtACCESS:          0  dtHIT:          0  dtMISS:          0
cpu0_L1I TRANSLATION  ACCESS:          0  HIT:          0  MISS:          0  iACCESS:          0  iHIT:          0  iMISS:          0  dACCESS:          0  dHIT:          0  dMISS:          0  itACCESS:          0  itHIT:          0  itMISS:          0  dtACCESS:          0  dtHIT:          0  dtMISS:          0
cpu0_L1I PREFETCH  REQUESTED:   27566802  ISSUED:   27566801  CROSSED:          0  USEFUL:    1962626  USELESS:     654217
cpu0_L1I AVERAGE iMISS LATENCY: 19.6069 cycles
cpu0_L1I AVERAGE dMISS LATENCY: 0 cycles
cpu0_L1I AVERAGE itMISS LATENCY: 0 cycles
cpu0_L1I AVERAGE dtMISS LATENCY: 0 cycles
cpu0_L1I PAGE CROSSINGS (TLB HIT):         0 
cpu0_L1I PAGE CROSSINGS (TLB MISS):         0 
cpu0_L1I AVERAGE MISS LATENCY: 19.6069 cycles
cpu0_ITLB TOTAL       ACCESS:   29835545  HIT:   27883831  MISS:    1951714  iACCESS:   29835545  iHIT:   27883831  iMISS:    1951714  dACCESS:          0  dHIT:          0  dMISS:          0  itACCESS:          0  itHIT:          0  itMISS:          0  dtACCESS:          0  dtHIT:          0  dtMISS:          0
cpu0_ITLB LOAD         ACCESS:   29835545  HIT:   27883831  MISS:    1951714  iACCESS:   29835545  iHIT:   27883831  iMISS:    1951714  dACCESS:          0  dHIT:          0  dMISS:          0  itACCESS:          0  itHIT:          0  itMISS:          0  dtACCESS:          0  dtHIT:          0  dtMISS:          0
cpu0_ITLB RFO          ACCESS:          0  HIT:          0  MISS:          0  iACCESS:          0  iHIT:          0  iMISS:          0  dACCESS:          0  dHIT:          0  dMISS:          0  itACCESS:          0  itHIT:          0  itMISS:          0  dtACCESS:          0  dtHIT:          0  dtMISS:          0
cpu0_ITLB PREFETCH     ACCESS:          0  HIT:          0  MISS:          0  iACCESS:          0  iHIT:          0  iMISS:          0  dACCESS:          0  dHIT:          0  dMISS:          0  itACCESS:          0  itHIT:          0  itMISS:          0  dtACCESS:          0  dtHIT:          0  dtMISS:          0
cpu0_ITLB WRITE        ACCESS:          0  HIT:          0  MISS:          0  iACCESS:          0  iHIT:          0  iMISS:          0  dACCESS:          0  dHIT:          0  dMISS:          0  itACCESS:          0  itHIT:          0  itMISS:          0  dtACCESS:          0  dtHIT:          0  dtMISS:          0
cpu0_ITLB TRANSLATION  ACCESS:          0  HIT:          0  MISS:          0  iACCESS:          0  iHIT:          0  iMISS:          0  dACCESS:          0  dHIT:          0  dMISS:          0  itACCESS:          0  itHIT:          0  itMISS:          0  dtACCESS:          0  dtHIT:          0  dtMISS:          0
cpu0_ITLB PREFETCH  REQUESTED:          0  ISSUED:          0  CROSSED:          0  USEFUL:     328757  USELESS:      62229
cpu0_ITLB AVERAGE iMISS LATENCY: 7.85376 cycles
cpu0_ITLB AVERAGE dMISS LATENCY: 0 cycles
cpu0_ITLB AVERAGE itMISS LATENCY: 0 cycles
cpu0_ITLB AVERAGE dtMISS LATENCY: 0 cycles
cpu0_ITLB PAGE CROSSINGS (TLB HIT):         0 
cpu0_ITLB PAGE CROSSINGS (TLB MISS):         0 
cpu0_ITLB AVERAGE MISS LATENCY: 7.85376 cycles
cpu0_DTLB TOTAL       ACCESS:   28079760  HIT:   26313679  MISS:    1766081  iACCESS:          0  iHIT:          0  iMISS:          0  dACCESS:   28079760  dHIT:   26313679  dMISS:    1766081  itACCESS:          0  itHIT:          0  itMISS:          0  dtACCESS:          0  dtHIT:          0  dtMISS:          0
cpu0_DTLB LOAD         ACCESS:   28079760  HIT:   26313679  MISS:    1766081  iACCESS:          0  iHIT:          0  iMISS:          0  dACCESS:   28079760  dHIT:   26313679  dMISS:    1766081  itACCESS:          0  itHIT:          0  itMISS:          0  dtACCESS:          0  dtHIT:          0  dtMISS:          0
cpu0_DTLB RFO          ACCESS:          0  HIT:          0  MISS:          0  iACCESS:          0  iHIT:          0  iMISS:          0  dACCESS:          0  dHIT:          0  dMISS:          0  itACCESS:          0  itHIT:          0  itMISS:          0  dtACCESS:          0  dtHIT:          0  dtMISS:          0
cpu0_DTLB PREFETCH     ACCESS:          0  HIT:          0  MISS:          0  iACCESS:          0  iHIT:          0  iMISS:          0  dACCESS:          0  dHIT:          0  dMISS:          0  itACCESS:          0  itHIT:          0  itMISS:          0  dtACCESS:          0  dtHIT:          0  dtMISS:          0
cpu0_DTLB WRITE        ACCESS:          0  HIT:          0  MISS:          0  iACCESS:          0  iHIT:          0  iMISS:          0  dACCESS:          0  dHIT:          0  dMISS:          0  itACCESS:          0  itHIT:          0  itMISS:          0  dtACCESS:          0  dtHIT:          0  dtMISS:          0
cpu0_DTLB TRANSLATION  ACCESS:          0  HIT:          0  MISS:          0  iACCESS:          0  iHIT:          0  iMISS:          0  dACCESS:          0  dHIT:          0  dMISS:          0  itACCESS:          0  itHIT:          0  itMISS:          0  dtACCESS:          0  dtHIT:          0  dtMISS:          0
cpu0_DTLB PREFETCH  REQUESTED:          0  ISSUED:          0  CROSSED:          0  USEFUL:          0  USELESS:          0
cpu0_DTLB AVERAGE iMISS LATENCY: 0 cycles
cpu0_DTLB AVERAGE dMISS LATENCY: 22.3199 cycles
cpu0_DTLB AVERAGE itMISS LATENCY: 0 cycles
cpu0_DTLB AVERAGE dtMISS LATENCY: 0 cycles
cpu0_DTLB PAGE CROSSINGS (TLB HIT):         0 
cpu0_DTLB PAGE CROSSINGS (TLB MISS):         0 
cpu0_DTLB AVERAGE MISS LATENCY: 22.3199 cycles
cpu0_STLB TOTAL       ACCESS:    1501321  HIT:    1270044  MISS:     231277  iACCESS:     390998  iHIT:     303223  iMISS:      87775  dACCESS:    1110323  dHIT:     966821  dMISS:     143502  itACCESS:          0  itHIT:          0  itMISS:          0  dtACCESS:          0  dtHIT:          0  dtMISS:          0
cpu0_STLB LOAD         ACCESS:    1501321  HIT:    1270044  MISS:     231277  iACCESS:     390998  iHIT:     303223  iMISS:      87775  dACCESS:    1110323  dHIT:     966821  dMISS:     143502  itACCESS:          0  itHIT:          0  itMISS:          0  dtACCESS:          0  dtHIT:          0  dtMISS:          0
cpu0_STLB RFO          ACCESS:          0  HIT:          0  MISS:          0  iACCESS:          0  iHIT:          0  iMISS:          0  dACCESS:          0  dHIT:          0  dMISS:          0  itACCESS:          0  itHIT:          0  itMISS:          0  dtACCESS:          0  dtHIT:          0  dtMISS:          0
cpu0_STLB PREFETCH     ACCESS:          0  HIT:          0  MISS:          0  iACCESS:          0  iHIT:          0  iMISS:          0  dACCESS:          0  dHIT:          0  dMISS:          0  itACCESS:          0  itHIT:          0  itMISS:          0  dtACCESS:          0  dtHIT:          0  dtMISS:          0
cpu0_STLB WRITE        ACCESS:          0  HIT:          0  MISS:          0  iACCESS:          0  iHIT:          0  iMISS:          0  dACCESS:          0  dHIT:          0  dMISS:          0  itACCESS:          0  itHIT:          0  itMISS:          0  dtACCESS:          0  dtHIT:          0  dtMISS:          0
cpu0_STLB TRANSLATION  ACCESS:          0  HIT:          0  MISS:          0  iACCESS:          0  iHIT:          0  iMISS:          0  dACCESS:          0  dHIT:          0  dMISS:          0  itACCESS:          0  itHIT:          0  itMISS:          0  dtACCESS:          0  dtHIT:          0  dtMISS:          0
cpu0_STLB PREFETCH  REQUESTED:          0  ISSUED:          0  CROSSED:          0  USEFUL:          0  USELESS:          0
cpu0_STLB AVERAGE iMISS LATENCY: 52.773 cycles
cpu0_STLB AVERAGE dMISS LATENCY: 131.919 cycles
cpu0_STLB AVERAGE itMISS LATENCY: 0 cycles
cpu0_STLB AVERAGE dtMISS LATENCY: 0 cycles
cpu0_STLB PAGE CROSSINGS (TLB HIT):         0 
cpu0_STLB PAGE CROSSINGS (TLB MISS):         0 
cpu0_STLB AVERAGE MISS LATENCY: 184.692 cycles
cpu0_L1D TOTAL       ACCESS:   42775171  HIT:   38521791  MISS:    4253380  iACCESS:          0  iHIT:          0  iMISS:          0  dACCESS:   42479385  dHIT:   38494947  dMISS:    3984438  itACCESS:      94241  itHIT:      15177  itMISS:      79064  dtACCESS:     201545  dtHIT:      11667  dtMISS:     189878
cpu0_L1D LOAD         ACCESS:   19507552  HIT:   17689656  MISS:    1817896  iACCESS:          0  iHIT:          0  iMISS:          0  dACCESS:   19507552  dHIT:   17689656  dMISS:    1817896  itACCESS:          0  itHIT:          0  itMISS:          0  dtACCESS:          0  dtHIT:          0  dtMISS:          0
cpu0_L1D RFO          ACCESS:          0  HIT:          0  MISS:          0  iACCESS:          0  iHIT:          0  iMISS:          0  dACCESS:          0  dHIT:          0  dMISS:          0  itACCESS:          0  itHIT:          0  itMISS:          0  dtACCESS:          0  dtHIT:          0  dtMISS:          0
cpu0_L1D PREFETCH     ACCESS:   12765008  HIT:   11079218  MISS:    1685790  iACCESS:          0  iHIT:          0  iMISS:          0  dACCESS:   12765008  dHIT:   11079218  dMISS:    1685790  itACCESS:          0  itHIT:          0  itMISS:          0  dtACCESS:          0  dtHIT:          0  dtMISS:          0
cpu0_L1D WRITE        ACCESS:   10206825  HIT:    9726073  MISS:     480752  iACCESS:          0  iHIT:          0  iMISS:          0  dACCESS:   10206825  dHIT:    9726073  dMISS:     480752  itACCESS:          0  itHIT:          0  itMISS:          0  dtACCESS:          0  dtHIT:          0  dtMISS:          0
cpu0_L1D TRANSLATION  ACCESS:     295786  HIT:      26844  MISS:     268942  iACCESS:          0  iHIT:          0  iMISS:          0  dACCESS:          0  dHIT:          0  dMISS:          0  itACCESS:      94241  itHIT:      15177  itMISS:      79064  dtACCESS:     201545  dtHIT:      11667  dtMISS:     189878
cpu0_L1D PREFETCH  REQUESTED:   19507552  ISSUED:   17227472  CROSSED:          0  USEFUL:     309181  USELESS:     702705
cpu0_L1D AVERAGE iMISS LATENCY: 0 cycles
cpu0_L1D AVERAGE dMISS LATENCY: 39.79 cycles
cpu0_L1D AVERAGE itMISS LATENCY: 2.68699 cycles
cpu0_L1D AVERAGE dtMISS LATENCY: 6.68058 cycles
cpu0_L1D PAGE CROSSINGS (TLB HIT):         0 
cpu0_L1D PAGE CROSSINGS (TLB MISS):         0 
cpu0_L1D AVERAGE MISS LATENCY: 49.1575 cycles
cpu0_L2C TOTAL       ACCESS:    7238426  HIT:    3741612  MISS:    3496814  iACCESS:    3351546  iHIT:    2048938  iMISS:    1302608  dACCESS:    3628416  dHIT:    1657406  dMISS:    1971010  itACCESS:      79064  itHIT:      13271  itMISS:      65793  dtACCESS:     179400  dtHIT:      21997  dtMISS:     157403
cpu0_L2C LOAD         ACCESS:    1722851  HIT:     924820  MISS:     798031  iACCESS:     771886  iHIT:     500308  iMISS:     271578  dACCESS:     950965  dHIT:     424512  dMISS:     526453  itACCESS:          0  itHIT:          0  itMISS:          0  dtACCESS:          0  dtHIT:          0  dtMISS:          0
cpu0_L2C RFO          ACCESS:     165186  HIT:      63366  MISS:     101820  iACCESS:          0  iHIT:          0  iMISS:          0  dACCESS:     165186  dHIT:      63366  dMISS:     101820  itACCESS:          0  itHIT:          0  itMISS:          0  dtACCESS:          0  dtHIT:          0  dtMISS:          0
cpu0_L2C PREFETCH     ACCESS:    4815819  HIT:    2443377  MISS:    2372442  iACCESS:    2579660  iHIT:    1548630  iMISS:    1031030  dACCESS:    2236159  dHIT:     894747  dMISS:    1341412  itACCESS:          0  itHIT:          0  itMISS:          0  dtACCESS:          0  dtHIT:          0  dtMISS:          0
cpu0_L2C WRITE        ACCESS:     276106  HIT:     274781  MISS:       1325  iACCESS:          0  iHIT:          0  iMISS:          0  dACCESS:     276106  dHIT:     274781  dMISS:       1325  itACCESS:          0  itHIT:          0  itMISS:          0  dtACCESS:          0  dtHIT:          0  dtMISS:          0
cpu0_L2C TRANSLATION  ACCESS:     258464  HIT:      35268  MISS:     223196  iACCESS:          0  iHIT:          0  iMISS:          0  dACCESS:          0  dHIT:          0  dMISS:          0  itACCESS:      79064  itHIT:      13271  itMISS:      65793  dtACCESS:     179400  dtHIT:      21997  dtMISS:     157403
cpu0_L2C PREFETCH  REQUESTED:    1482687  ISSUED:    1482357  CROSSED:          0  USEFUL:     348750  USELESS:     289364
cpu0_L2C AVERAGE iMISS LATENCY: 35.5413 cycles
cpu0_L2C AVERAGE dMISS LATENCY: 61.8659 cycles
cpu0_L2C AVERAGE itMISS LATENCY: 3.04526 cycles
cpu0_L2C AVERAGE dtMISS LATENCY: 7.61612 cycles
cpu0_L2C PAGE CROSSINGS (TLB HIT):         0 
cpu0_L2C PAGE CROSSINGS (TLB MISS):         0 
cpu0_L2C AVERAGE MISS LATENCY: 108.069 cycles
LLC TOTAL       ACCESS:    3462159  HIT:    1519467  MISS:    1942692  iACCESS:    1226405  iHIT:     551601  iMISS:     674804  dACCESS:    2012558  dHIT:     922396  dMISS:    1090162  itACCESS:      65793  itHIT:      12173  itMISS:      53620  dtACCESS:     157403  dtHIT:      33297  dtMISS:     124106
LLC LOAD         ACCESS:     792271  HIT:     370385  MISS:     421886  iACCESS:     270532  iHIT:     127318  iMISS:     143214  dACCESS:     521739  dHIT:     243067  dMISS:     278672  itACCESS:          0  itHIT:          0  itMISS:          0  dtACCESS:          0  dtHIT:          0  dtMISS:          0
LLC RFO          ACCESS:     101803  HIT:      40025  MISS:      61778  iACCESS:          0  iHIT:          0  iMISS:          0  dACCESS:     101803  dHIT:      40025  dMISS:      61778  itACCESS:          0  itHIT:          0  itMISS:          0  dtACCESS:          0  dtHIT:          0  dtMISS:          0
LLC PREFETCH     ACCESS:    2198536  HIT:     925950  MISS:    1272586  iACCESS:     955873  iHIT:     424283  iMISS:     531590  dACCESS:    1242663  dHIT:     501667  dMISS:     740996  itACCESS:          0  itHIT:          0  itMISS:          0  dtACCESS:          0  dtHIT:          0  dtMISS:          0
LLC WRITE        ACCESS:     146353  HIT:     137637  MISS:       8716  iACCESS:          0  iHIT:          0  iMISS:          0  dACCESS:     146353  dHIT:     137637  dMISS:       8716  itACCESS:          0  itHIT:          0  itMISS:          0  dtACCESS:          0  dtHIT:          0  dtMISS:          0
LLC TRANSLATION  ACCESS:     223196  HIT:      45470  MISS:     177726  iACCESS:          0  iHIT:          0  iMISS:          0  dACCESS:          0  dHIT:          0  dMISS:          0  itACCESS:      65793  itHIT:      12173  itMISS:      53620  dtACCESS:     157403  dtHIT:      33297  dtMISS:     124106
LLC PREFETCH  REQUESTED:          0  ISSUED:          0  CROSSED:          0  USEFUL:          0  USELESS:          0
LLC AVERAGE iMISS LATENCY: 51.6204 cycles
LLC AVERAGE dMISS LATENCY: 93.5757 cycles
LLC AVERAGE itMISS LATENCY: 4.81286 cycles
LLC AVERAGE dtMISS LATENCY: 12.1134 cycles
LLC PAGE CROSSINGS (TLB HIT):         0 
LLC PAGE CROSSINGS (TLB MISS):         0 
LLC AVERAGE MISS LATENCY: 162.123 cycles

PageTableWalker TOTAL       ACCESS:     117513  
PageTableWalker AVERAGE LATENCY: 5.05864 cycles
PageTableWalker TOTAL LATENCY: 594455 cycles

DRAM Statistics
Channel 0
 RQ ROW_BUFFER_HIT:     509920
  ROW_BUFFER_MISS:    1412645
 AVG DBUS CONGESTED CYCLE:    3.63418
 WQ ROW_BUFFER_HIT:      38101
  ROW_BUFFER_MISS:      24902  FULL:          0

