last_page:0x200000000000000
VMEM_RES_CAP:0x100000
PAGE_SIZE:4096
LOG2_PAGE_SIZE:12
LOG2_PAGE_TABLE_SIZE:9
page_table_levels:5
WARNING: physical memory size is smaller than virtual memory size
FDiP enabled with aggresivity 16

*** ChampSim Multicore Out-of-Order Simulator ***

Warmup Instructions: 50000000
Simulation Instructions: 100000000
Number of CPUs: 1
Small page size: 4096
Large page size: 2097152

CPU 0 Bimodal branch predictor
Basic BTB sets: 1024 ways: 8 indirect buffer size: 4096 RAS size: 64
Instruction page size distrubution: 0
Loading instruction page size distribution from /home/bsc/bsc018186/scratch/itp_asplos25_AE/dump/srv346_ap.pdst
Data page size distrubution: 0
Loading data page size distribution from /home/bsc/bsc018186/scratch/itp_asplos25_AE/dump/srv346_ap.pdst
cpu0_L2C IP-based stride prefetcher
cpu0_L2C is using PTP replacement policy:
	TLB_STRESS_THRESHOLD:0
	PTE_EVICTION_RATIO:0
cpu0_L1D next line prefetcher
CHiRPing...
cpu0_L1I next line prefetcher
Off-chip DRAM Size: 4 GiB Channels: 1 Width: 64-bit Data Rate: 3200 MT/s
Heartbeat CPU 0 instructions: 10000003 cycles: 2500247 heartbeat IPC: 3.99961 cumulative IPC: 3.99961 (Simulation time: 0 hr 0 min 37 sec) 
Heartbeat CPU 0 instructions: 20000001 cycles: 5000299 heartbeat IPC: 3.99992 cumulative IPC: 3.99977 (Simulation time: 0 hr 1 min 16 sec) 
Heartbeat CPU 0 instructions: 30000001 cycles: 7500299 heartbeat IPC: 4 cumulative IPC: 3.99985 (Simulation time: 0 hr 1 min 56 sec) 
Heartbeat CPU 0 instructions: 40000000 cycles: 10000365 heartbeat IPC: 3.9999 cumulative IPC: 3.99986 (Simulation time: 0 hr 2 min 38 sec) 
Heartbeat CPU 0 instructions: 50000001 cycles: 12500387 heartbeat IPC: 3.99997 cumulative IPC: 3.99988 (Simulation time: 0 hr 3 min 19 sec) 
Warmup finished CPU 0 instructions: 50000001 cycles: 12500388 cumulative IPC: 3.99988 (Simulation time: 0 hr 3 min 19 sec) 

Warmup complete CPU 0 instructions: 50000001 cycles: 12500388 (Simulation time: 0 hr 3 min 19 sec) 

Heartbeat CPU 0 instructions: 60000001 cycles: 27127014 heartbeat IPC: 0.683685 cumulative IPC: 0.683685 (Simulation time: 0 hr 4 min 25 sec) 
Heartbeat CPU 0 instructions: 70000004 cycles: 41290524 heartbeat IPC: 0.70604 cumulative IPC: 0.694683 (Simulation time: 0 hr 5 min 30 sec) 
Heartbeat CPU 0 instructions: 80000001 cycles: 55574553 heartbeat IPC: 0.700083 cumulative IPC: 0.696474 (Simulation time: 0 hr 6 min 36 sec) 
Heartbeat CPU 0 instructions: 90000001 cycles: 70010557 heartbeat IPC: 0.692713 cumulative IPC: 0.69553 (Simulation time: 0 hr 7 min 41 sec) 
Heartbeat CPU 0 instructions: 100000002 cycles: 83490592 heartbeat IPC: 0.741838 cumulative IPC: 0.704323 (Simulation time: 0 hr 8 min 45 sec) 
*** Reached end of trace: /gpfs/projects/bsc18/MN4/bsc18/romol/ChampSim/traces/qualcomm_srv/srv346_ap.champsimtrace.xz
Heartbeat CPU 0 instructions: 110000004 cycles: 97540988 heartbeat IPC: 0.711724 cumulative IPC: 0.705546 (Simulation time: 0 hr 9 min 49 sec) 
Heartbeat CPU 0 instructions: 120000004 cycles: 111511021 heartbeat IPC: 0.715818 cumulative IPC: 0.706995 (Simulation time: 0 hr 10 min 53 sec) 
Heartbeat CPU 0 instructions: 130000000 cycles: 125241149 heartbeat IPC: 0.728326 cumulative IPC: 0.709593 (Simulation time: 0 hr 11 min 57 sec) 
Heartbeat CPU 0 instructions: 140000001 cycles: 139509928 heartbeat IPC: 0.700831 cumulative IPC: 0.708609 (Simulation time: 0 hr 13 min 3 sec) 
Heartbeat CPU 0 instructions: 150000001 cycles: 153130604 heartbeat IPC: 0.734178 cumulative IPC: 0.711085 (Simulation time: 0 hr 14 min 7 sec) 
Simulation finished CPU 0 instructions: 100000000 cycles: 140630217 cumulative IPC: 0.711085 (Simulation time: 0 hr 14 min 7 sec) 

Simulation complete CPU 0 instructions: 100000000 cycles: 140630217 (Simulation time: 0 hr 14 min 7 sec) 


ChampSim completed all CPUs

Saving instructions large page distribution to /home/bsc/bsc018186/scratch/itp_asplos25_AE/dump/srv346_ap.pdst...
Saving data large page distribution to /home/bsc/bsc018186/scratch/itp_asplos25_AE/dump/srv346_ap.pdst...
=== Simulation ===
CPU 0 runs /gpfs/projects/bsc18/MN4/bsc18/romol/ChampSim/traces/qualcomm_srv/srv346_ap.champsimtrace.xz

Region of Interest Statistics

CPU 0 cumulative IPC: 0.711085 instructions: 100000000 cycles: 140630217
CPU 0 Branch Prediction Accuracy: 83.3954% MPKI: 29.7758 Average ROB Occupancy at Mispredict: 12.2582
Branch type MPKI
BRANCH_DIRECT_JUMP: 0.952351
BRANCH_INDIRECT: 15.4252
BRANCH_CONDITIONAL: 9.75544
BRANCH_DIRECT_CALL: 1.82252
BRANCH_INDIRECT_CALL: 0.497561
BRANCH_RETURN: 1.32278

Instructions large pages: 0
Instructions small pages: 9805
Large page distribution for instructions: 0%

Data large pages: 0
Data small pages: 8937
Large page distribution for data: 0%

cpu0_L1I TOTAL       ACCESS:   35157993  HIT:   26519937  MISS:    8638056  iACCESS:   35157993  iHIT:   26519937  iMISS:    8638056  dACCESS:          0  dHIT:          0  dMISS:          0  itACCESS:          0  itHIT:          0  itMISS:          0  dtACCESS:          0  dtHIT:          0  dtMISS:          0
cpu0_L1I LOAD         ACCESS:   10247683  HIT:    7829462  MISS:    2418221  iACCESS:   10247683  iHIT:    7829462  iMISS:    2418221  dACCESS:          0  dHIT:          0  dMISS:          0  itACCESS:          0  itHIT:          0  itMISS:          0  dtACCESS:          0  dtHIT:          0  dtMISS:          0
cpu0_L1I RFO          ACCESS:          0  HIT:          0  MISS:          0  iACCESS:          0  iHIT:          0  iMISS:          0  dACCESS:          0  dHIT:          0  dMISS:          0  itACCESS:          0  itHIT:          0  itMISS:          0  dtACCESS:          0  dtHIT:          0  dtMISS:          0
cpu0_L1I PREFETCH     ACCESS:   24910310  HIT:   18690475  MISS:    6219835  iACCESS:   24910310  iHIT:   18690475  iMISS:    6219835  dACCESS:          0  dHIT:          0  dMISS:          0  itACCESS:          0  itHIT:          0  itMISS:          0  dtACCESS:          0  dtHIT:          0  dtMISS:          0
cpu0_L1I WRITE        ACCESS:          0  HIT:          0  MISS:          0  iACCESS:          0  iHIT:          0  iMISS:          0  dACCESS:          0  dHIT:          0  dMISS:          0  itACCESS:          0  itHIT:          0  itMISS:          0  dtACCESS:          0  dtHIT:          0  dtMISS:          0
cpu0_L1I TRANSLATION  ACCESS:          0  HIT:          0  MISS:          0  iACCESS:          0  iHIT:          0  iMISS:          0  dACCESS:          0  dHIT:          0  dMISS:          0  itACCESS:          0  itHIT:          0  itMISS:          0  dtACCESS:          0  dtHIT:          0  dtMISS:          0
cpu0_L1I PREFETCH  REQUESTED:   27109284  ISSUED:   27104369  CROSSED:          0  USEFUL:    1932064  USELESS:     633008
cpu0_L1I AVERAGE iMISS LATENCY: 13.9508 cycles
cpu0_L1I AVERAGE dMISS LATENCY: 0 cycles
cpu0_L1I AVERAGE itMISS LATENCY: 0 cycles
cpu0_L1I AVERAGE dtMISS LATENCY: 0 cycles
cpu0_L1I PAGE CROSSINGS (TLB HIT):         0 
cpu0_L1I PAGE CROSSINGS (TLB MISS):         0 
cpu0_L1I AVERAGE MISS LATENCY: 13.9508 cycles
cpu0_ITLB TOTAL       ACCESS:   29023161  HIT:   27040366  MISS:    1982795  iACCESS:   29023161  iHIT:   27040366  iMISS:    1982795  dACCESS:          0  dHIT:          0  dMISS:          0  itACCESS:          0  itHIT:          0  itMISS:          0  dtACCESS:          0  dtHIT:          0  dtMISS:          0
cpu0_ITLB LOAD         ACCESS:   29023161  HIT:   27040366  MISS:    1982795  iACCESS:   29023161  iHIT:   27040366  iMISS:    1982795  dACCESS:          0  dHIT:          0  dMISS:          0  itACCESS:          0  itHIT:          0  itMISS:          0  dtACCESS:          0  dtHIT:          0  dtMISS:          0
cpu0_ITLB RFO          ACCESS:          0  HIT:          0  MISS:          0  iACCESS:          0  iHIT:          0  iMISS:          0  dACCESS:          0  dHIT:          0  dMISS:          0  itACCESS:          0  itHIT:          0  itMISS:          0  dtACCESS:          0  dtHIT:          0  dtMISS:          0
cpu0_ITLB PREFETCH     ACCESS:          0  HIT:          0  MISS:          0  iACCESS:          0  iHIT:          0  iMISS:          0  dACCESS:          0  dHIT:          0  dMISS:          0  itACCESS:          0  itHIT:          0  itMISS:          0  dtACCESS:          0  dtHIT:          0  dtMISS:          0
cpu0_ITLB WRITE        ACCESS:          0  HIT:          0  MISS:          0  iACCESS:          0  iHIT:          0  iMISS:          0  dACCESS:          0  dHIT:          0  dMISS:          0  itACCESS:          0  itHIT:          0  itMISS:          0  dtACCESS:          0  dtHIT:          0  dtMISS:          0
cpu0_ITLB TRANSLATION  ACCESS:          0  HIT:          0  MISS:          0  iACCESS:          0  iHIT:          0  iMISS:          0  dACCESS:          0  dHIT:          0  dMISS:          0  itACCESS:          0  itHIT:          0  itMISS:          0  dtACCESS:          0  dtHIT:          0  dtMISS:          0
cpu0_ITLB PREFETCH  REQUESTED:          0  ISSUED:          0  CROSSED:          0  USEFUL:     325234  USELESS:      62150
cpu0_ITLB AVERAGE iMISS LATENCY: 2.66185 cycles
cpu0_ITLB AVERAGE dMISS LATENCY: 0 cycles
cpu0_ITLB AVERAGE itMISS LATENCY: 0 cycles
cpu0_ITLB AVERAGE dtMISS LATENCY: 0 cycles
cpu0_ITLB PAGE CROSSINGS (TLB HIT):         0 
cpu0_ITLB PAGE CROSSINGS (TLB MISS):         0 
cpu0_ITLB AVERAGE MISS LATENCY: 2.66185 cycles
cpu0_DTLB TOTAL       ACCESS:   27680369  HIT:   25859505  MISS:    1820864  iACCESS:          0  iHIT:          0  iMISS:          0  dACCESS:   27680369  dHIT:   25859505  dMISS:    1820864  itACCESS:          0  itHIT:          0  itMISS:          0  dtACCESS:          0  dtHIT:          0  dtMISS:          0
cpu0_DTLB LOAD         ACCESS:   27680369  HIT:   25859505  MISS:    1820864  iACCESS:          0  iHIT:          0  iMISS:          0  dACCESS:   27680369  dHIT:   25859505  dMISS:    1820864  itACCESS:          0  itHIT:          0  itMISS:          0  dtACCESS:          0  dtHIT:          0  dtMISS:          0
cpu0_DTLB RFO          ACCESS:          0  HIT:          0  MISS:          0  iACCESS:          0  iHIT:          0  iMISS:          0  dACCESS:          0  dHIT:          0  dMISS:          0  itACCESS:          0  itHIT:          0  itMISS:          0  dtACCESS:          0  dtHIT:          0  dtMISS:          0
cpu0_DTLB PREFETCH     ACCESS:          0  HIT:          0  MISS:          0  iACCESS:          0  iHIT:          0  iMISS:          0  dACCESS:          0  dHIT:          0  dMISS:          0  itACCESS:          0  itHIT:          0  itMISS:          0  dtACCESS:          0  dtHIT:          0  dtMISS:          0
cpu0_DTLB WRITE        ACCESS:          0  HIT:          0  MISS:          0  iACCESS:          0  iHIT:          0  iMISS:          0  dACCESS:          0  dHIT:          0  dMISS:          0  itACCESS:          0  itHIT:          0  itMISS:          0  dtACCESS:          0  dtHIT:          0  dtMISS:          0
cpu0_DTLB TRANSLATION  ACCESS:          0  HIT:          0  MISS:          0  iACCESS:          0  iHIT:          0  iMISS:          0  dACCESS:          0  dHIT:          0  dMISS:          0  itACCESS:          0  itHIT:          0  itMISS:          0  dtACCESS:          0  dtHIT:          0  dtMISS:          0
cpu0_DTLB PREFETCH  REQUESTED:          0  ISSUED:          0  CROSSED:          0  USEFUL:          0  USELESS:          0
cpu0_DTLB AVERAGE iMISS LATENCY: 0 cycles
cpu0_DTLB AVERAGE dMISS LATENCY: 8.94893 cycles
cpu0_DTLB AVERAGE itMISS LATENCY: 0 cycles
cpu0_DTLB AVERAGE dtMISS LATENCY: 0 cycles
cpu0_DTLB PAGE CROSSINGS (TLB HIT):         0 
cpu0_DTLB PAGE CROSSINGS (TLB MISS):         0 
cpu0_DTLB AVERAGE MISS LATENCY: 8.94893 cycles
cpu0_STLB TOTAL       ACCESS:    1509450  HIT:    1348587  MISS:     160863  iACCESS:     387493  iHIT:     331193  iMISS:      56300  dACCESS:    1121957  dHIT:    1017394  dMISS:     104563  itACCESS:          0  itHIT:          0  itMISS:          0  dtACCESS:          0  dtHIT:          0  dtMISS:          0
cpu0_STLB LOAD         ACCESS:    1509450  HIT:    1348587  MISS:     160863  iACCESS:     387493  iHIT:     331193  iMISS:      56300  dACCESS:    1121957  dHIT:    1017394  dMISS:     104563  itACCESS:          0  itHIT:          0  itMISS:          0  dtACCESS:          0  dtHIT:          0  dtMISS:          0
cpu0_STLB RFO          ACCESS:          0  HIT:          0  MISS:          0  iACCESS:          0  iHIT:          0  iMISS:          0  dACCESS:          0  dHIT:          0  dMISS:          0  itACCESS:          0  itHIT:          0  itMISS:          0  dtACCESS:          0  dtHIT:          0  dtMISS:          0
cpu0_STLB PREFETCH     ACCESS:          0  HIT:          0  MISS:          0  iACCESS:          0  iHIT:          0  iMISS:          0  dACCESS:          0  dHIT:          0  dMISS:          0  itACCESS:          0  itHIT:          0  itMISS:          0  dtACCESS:          0  dtHIT:          0  dtMISS:          0
cpu0_STLB WRITE        ACCESS:          0  HIT:          0  MISS:          0  iACCESS:          0  iHIT:          0  iMISS:          0  dACCESS:          0  dHIT:          0  dMISS:          0  itACCESS:          0  itHIT:          0  itMISS:          0  dtACCESS:          0  dtHIT:          0  dtMISS:          0
cpu0_STLB TRANSLATION  ACCESS:          0  HIT:          0  MISS:          0  iACCESS:          0  iHIT:          0  iMISS:          0  dACCESS:          0  dHIT:          0  dMISS:          0  itACCESS:          0  itHIT:          0  itMISS:          0  dtACCESS:          0  dtHIT:          0  dtMISS:          0
cpu0_STLB PREFETCH  REQUESTED:          0  ISSUED:          0  CROSSED:          0  USEFUL:          0  USELESS:          0
cpu0_STLB AVERAGE iMISS LATENCY: 13.8058 cycles
cpu0_STLB AVERAGE dMISS LATENCY: 45.6721 cycles
cpu0_STLB AVERAGE itMISS LATENCY: 0 cycles
cpu0_STLB AVERAGE dtMISS LATENCY: 0 cycles
cpu0_STLB PAGE CROSSINGS (TLB HIT):         0 
cpu0_STLB PAGE CROSSINGS (TLB MISS):         0 
cpu0_STLB AVERAGE MISS LATENCY: 59.4779 cycles
cpu0_L1D TOTAL       ACCESS:   41419876  HIT:   37887712  MISS:    3532164  iACCESS:          0  iHIT:          0  iMISS:          0  dACCESS:   41197961  dHIT:   37868330  dMISS:    3329631  itACCESS:      61094  itHIT:       8824  itMISS:      52270  dtACCESS:     160821  dtHIT:      10558  dtMISS:     150263
cpu0_L1D LOAD         ACCESS:   18957937  HIT:   17439908  MISS:    1518029  iACCESS:          0  iHIT:          0  iMISS:          0  dACCESS:   18957937  dHIT:   17439908  dMISS:    1518029  itACCESS:          0  itHIT:          0  itMISS:          0  dtACCESS:          0  dtHIT:          0  dtMISS:          0
cpu0_L1D RFO          ACCESS:          0  HIT:          0  MISS:          0  iACCESS:          0  iHIT:          0  iMISS:          0  dACCESS:          0  dHIT:          0  dMISS:          0  itACCESS:          0  itHIT:          0  itMISS:          0  dtACCESS:          0  dtHIT:          0  dtMISS:          0
cpu0_L1D PREFETCH     ACCESS:   12119175  HIT:   10748646  MISS:    1370529  iACCESS:          0  iHIT:          0  iMISS:          0  dACCESS:   12119175  dHIT:   10748646  dMISS:    1370529  itACCESS:          0  itHIT:          0  itMISS:          0  dtACCESS:          0  dtHIT:          0  dtMISS:          0
cpu0_L1D WRITE        ACCESS:   10120849  HIT:    9679776  MISS:     441073  iACCESS:          0  iHIT:          0  iMISS:          0  dACCESS:   10120849  dHIT:    9679776  dMISS:     441073  itACCESS:          0  itHIT:          0  itMISS:          0  dtACCESS:          0  dtHIT:          0  dtMISS:          0
cpu0_L1D TRANSLATION  ACCESS:     221915  HIT:      19382  MISS:     202533  iACCESS:          0  iHIT:          0  iMISS:          0  dACCESS:          0  dHIT:          0  dMISS:          0  itACCESS:      61094  itHIT:       8824  itMISS:      52270  dtACCESS:     160821  dtHIT:      10558  dtMISS:     150263
cpu0_L1D PREFETCH  REQUESTED:   18957937  ISSUED:   16911922  CROSSED:          0  USEFUL:     311477  USELESS:     703953
cpu0_L1D AVERAGE iMISS LATENCY: 0 cycles
cpu0_L1D AVERAGE dMISS LATENCY: 34.7002 cycles
cpu0_L1D AVERAGE itMISS LATENCY: 0.489374 cycles
cpu0_L1D AVERAGE dtMISS LATENCY: 1.44389 cycles
cpu0_L1D PAGE CROSSINGS (TLB HIT):         0 
cpu0_L1D PAGE CROSSINGS (TLB MISS):         0 
cpu0_L1D AVERAGE MISS LATENCY: 36.6335 cycles
cpu0_L2C TOTAL       ACCESS:    7005231  HIT:    1217618  MISS:    5787613  iACCESS:    3318721  iHIT:     672903  iMISS:    2645818  dACCESS:    3496264  dHIT:     388241  dMISS:    3108023  itACCESS:      52270  itHIT:      41924  itMISS:      10346  dtACCESS:     137976  dtHIT:     114550  dtMISS:      23426
cpu0_L2C LOAD         ACCESS:    1726818  HIT:     139913  MISS:    1586905  iACCESS:     792240  iHIT:      95111  iMISS:     697129  dACCESS:     934578  dHIT:      44802  dMISS:     889776  itACCESS:          0  itHIT:          0  itMISS:          0  dtACCESS:          0  dtHIT:          0  dtMISS:          0
cpu0_L2C RFO          ACCESS:     156372  HIT:       7699  MISS:     148673  iACCESS:          0  iHIT:          0  iMISS:          0  dACCESS:     156372  dHIT:       7699  dMISS:     148673  itACCESS:          0  itHIT:          0  itMISS:          0  dtACCESS:          0  dtHIT:          0  dtMISS:          0
cpu0_L2C PREFETCH     ACCESS:    4648755  HIT:     851229  MISS:    3797526  iACCESS:    2526481  iHIT:     577792  iMISS:    1948689  dACCESS:    2122274  dHIT:     273437  dMISS:    1848837  itACCESS:          0  itHIT:          0  itMISS:          0  dtACCESS:          0  dtHIT:          0  dtMISS:          0
cpu0_L2C WRITE        ACCESS:     283040  HIT:      62303  MISS:     220737  iACCESS:          0  iHIT:          0  iMISS:          0  dACCESS:     283040  dHIT:      62303  dMISS:     220737  itACCESS:          0  itHIT:          0  itMISS:          0  dtACCESS:          0  dtHIT:          0  dtMISS:          0
cpu0_L2C TRANSLATION  ACCESS:     190246  HIT:     156474  MISS:      33772  iACCESS:          0  iHIT:          0  iMISS:          0  dACCESS:          0  dHIT:          0  dMISS:          0  itACCESS:      52270  itHIT:      41924  itMISS:      10346  dtACCESS:     137976  dtHIT:     114550  dtMISS:      23426
cpu0_L2C PREFETCH  REQUESTED:    1394177  ISSUED:    1394177  CROSSED:          0  USEFUL:     426898  USELESS:     394253
cpu0_L2C AVERAGE iMISS LATENCY: 15.4978 cycles
cpu0_L2C AVERAGE dMISS LATENCY: 24.4509 cycles
cpu0_L2C AVERAGE itMISS LATENCY: 0.215394 cycles
cpu0_L2C AVERAGE dtMISS LATENCY: 0.661432 cycles
cpu0_L2C PAGE CROSSINGS (TLB HIT):         0 
cpu0_L2C PAGE CROSSINGS (TLB MISS):         0 
cpu0_L2C AVERAGE MISS LATENCY: 40.8255 cycles
LLC TOTAL       ACCESS:    5713040  HIT:    4892481  MISS:     820559  iACCESS:    2588573  iHIT:    2320926  iMISS:     267647  dACCESS:    3090695  dHIT:    2562643  dMISS:     528052  itACCESS:      10346  itHIT:       4303  itMISS:       6043  dtACCESS:      23426  dtHIT:       4609  dtMISS:      18817
LLC LOAD         ACCESS:    1584642  HIT:    1390976  MISS:     193666  iACCESS:     695221  iHIT:     636930  iMISS:      58291  dACCESS:     889421  dHIT:     754046  dMISS:     135375  itACCESS:          0  itHIT:          0  itMISS:          0  dtACCESS:          0  dtHIT:          0  dtMISS:          0
LLC RFO          ACCESS:     148668  HIT:     112719  MISS:      35949  iACCESS:          0  iHIT:          0  iMISS:          0  dACCESS:     148668  dHIT:     112719  dMISS:      35949  itACCESS:          0  itHIT:          0  itMISS:          0  dtACCESS:          0  dtHIT:          0  dtMISS:          0
LLC PREFETCH     ACCESS:    3690117  HIT:    3124048  MISS:     566069  iACCESS:    1893352  iHIT:    1683996  iMISS:     209356  dACCESS:    1796765  dHIT:    1440052  dMISS:     356713  itACCESS:          0  itHIT:          0  itMISS:          0  dtACCESS:          0  dtHIT:          0  dtMISS:          0
LLC WRITE        ACCESS:     255841  HIT:     255826  MISS:         15  iACCESS:          0  iHIT:          0  iMISS:          0  dACCESS:     255841  dHIT:     255826  dMISS:         15  itACCESS:          0  itHIT:          0  itMISS:          0  dtACCESS:          0  dtHIT:          0  dtMISS:          0
LLC TRANSLATION  ACCESS:      33772  HIT:       8912  MISS:      24860  iACCESS:          0  iHIT:          0  iMISS:          0  dACCESS:          0  dHIT:          0  dMISS:          0  itACCESS:      10346  itHIT:       4303  itMISS:       6043  dtACCESS:      23426  dtHIT:       4609  dtMISS:      18817
LLC PREFETCH  REQUESTED:          0  ISSUED:          0  CROSSED:          0  USEFUL:          0  USELESS:          0
LLC AVERAGE iMISS LATENCY: 48.3757 cycles
LLC AVERAGE dMISS LATENCY: 105.758 cycles
LLC AVERAGE itMISS LATENCY: 1.27271 cycles
LLC AVERAGE dtMISS LATENCY: 4.10263 cycles
LLC PAGE CROSSINGS (TLB HIT):         0 
LLC PAGE CROSSINGS (TLB MISS):         0 
LLC AVERAGE MISS LATENCY: 159.509 cycles

PageTableWalker TOTAL       ACCESS:      81679  
PageTableWalker AVERAGE LATENCY: 4.04455 cycles
PageTableWalker TOTAL LATENCY: 330354 cycles

DRAM Statistics
Channel 0
 RQ ROW_BUFFER_HIT:     227741
  ROW_BUFFER_MISS:     592745
 AVG DBUS CONGESTED CYCLE:    3.62469
 WQ ROW_BUFFER_HIT:      20337
  ROW_BUFFER_MISS:      29163  FULL:          0

