last_page:0x200000000000000
VMEM_RES_CAP:0x100000
PAGE_SIZE:4096
LOG2_PAGE_SIZE:12
LOG2_PAGE_TABLE_SIZE:9
page_table_levels:5
WARNING: physical memory size is smaller than virtual memory size
FDiP enabled with aggresivity 16

*** ChampSim Multicore Out-of-Order Simulator ***

Warmup Instructions: 50000000
Simulation Instructions: 100000000
Number of CPUs: 1
Small page size: 4096
Large page size: 2097152

CPU 0 Bimodal branch predictor
Basic BTB sets: 1024 ways: 8 indirect buffer size: 4096 RAS size: 64
Instruction page size distrubution: 0
Loading instruction page size distribution from /home/bsc/bsc018186/scratch/itp_asplos25_AE/dump/srv326_ap.pdst
Data page size distrubution: 0
Loading data page size distribution from /home/bsc/bsc018186/scratch/itp_asplos25_AE/dump/srv326_ap.pdst
cpu0_L2C IP-based stride prefetcher
cpu0_L1D next line prefetcher
CHiRPing...
cpu0_L1I next line prefetcher
Off-chip DRAM Size: 4 GiB Channels: 1 Width: 64-bit Data Rate: 3200 MT/s
Heartbeat CPU 0 instructions: 10000000 cycles: 2500205 heartbeat IPC: 3.99968 cumulative IPC: 3.99968 (Simulation time: 0 hr 0 min 38 sec) 
Heartbeat CPU 0 instructions: 20000001 cycles: 5000388 heartbeat IPC: 3.99971 cumulative IPC: 3.99969 (Simulation time: 0 hr 1 min 18 sec) 
Heartbeat CPU 0 instructions: 30000001 cycles: 7500454 heartbeat IPC: 3.9999 cumulative IPC: 3.99976 (Simulation time: 0 hr 1 min 58 sec) 
Heartbeat CPU 0 instructions: 40000000 cycles: 10000471 heartbeat IPC: 3.99998 cumulative IPC: 3.99982 (Simulation time: 0 hr 2 min 39 sec) 
Heartbeat CPU 0 instructions: 50000002 cycles: 12500614 heartbeat IPC: 3.99978 cumulative IPC: 3.99981 (Simulation time: 0 hr 3 min 21 sec) 
Warmup finished CPU 0 instructions: 50000002 cycles: 12500615 cumulative IPC: 3.99981 (Simulation time: 0 hr 3 min 21 sec) 

Warmup complete CPU 0 instructions: 50000002 cycles: 12500615 (Simulation time: 0 hr 3 min 21 sec) 

Heartbeat CPU 0 instructions: 60000000 cycles: 27947387 heartbeat IPC: 0.647385 cumulative IPC: 0.647385 (Simulation time: 0 hr 4 min 27 sec) 
Heartbeat CPU 0 instructions: 70000003 cycles: 43696267 heartbeat IPC: 0.634966 cumulative IPC: 0.641116 (Simulation time: 0 hr 5 min 34 sec) 
Heartbeat CPU 0 instructions: 80000001 cycles: 59653689 heartbeat IPC: 0.626668 cumulative IPC: 0.636226 (Simulation time: 0 hr 6 min 41 sec) 
Heartbeat CPU 0 instructions: 90000001 cycles: 76222732 heartbeat IPC: 0.603536 cumulative IPC: 0.627726 (Simulation time: 0 hr 7 min 49 sec) 
Heartbeat CPU 0 instructions: 100000004 cycles: 91765947 heartbeat IPC: 0.643368 cumulative IPC: 0.630793 (Simulation time: 0 hr 8 min 55 sec) 
*** Reached end of trace: /gpfs/projects/bsc18/MN4/bsc18/romol/ChampSim/traces/qualcomm_srv/srv326_ap.champsimtrace.xz
Heartbeat CPU 0 instructions: 110000001 cycles: 106839578 heartbeat IPC: 0.66341 cumulative IPC: 0.636005 (Simulation time: 0 hr 10 min 1 sec) 
Heartbeat CPU 0 instructions: 120000000 cycles: 121809491 heartbeat IPC: 0.668007 cumulative IPC: 0.640388 (Simulation time: 0 hr 11 min 7 sec) 
Heartbeat CPU 0 instructions: 130000002 cycles: 136587460 heartbeat IPC: 0.676684 cumulative IPC: 0.64471 (Simulation time: 0 hr 12 min 12 sec) 
Heartbeat CPU 0 instructions: 140000001 cycles: 151726321 heartbeat IPC: 0.660552 cumulative IPC: 0.646433 (Simulation time: 0 hr 13 min 18 sec) 
Heartbeat CPU 0 instructions: 150000000 cycles: 166820897 heartbeat IPC: 0.66249 cumulative IPC: 0.648003 (Simulation time: 0 hr 14 min 25 sec) 
Simulation finished CPU 0 instructions: 100000002 cycles: 154320284 cumulative IPC: 0.648003 (Simulation time: 0 hr 14 min 25 sec) 

Simulation complete CPU 0 instructions: 100000002 cycles: 154320284 (Simulation time: 0 hr 14 min 25 sec) 


ChampSim completed all CPUs

Saving instructions large page distribution to /home/bsc/bsc018186/scratch/itp_asplos25_AE/dump/srv326_ap.pdst...
Saving data large page distribution to /home/bsc/bsc018186/scratch/itp_asplos25_AE/dump/srv326_ap.pdst...
=== Simulation ===
CPU 0 runs /gpfs/projects/bsc18/MN4/bsc18/romol/ChampSim/traces/qualcomm_srv/srv326_ap.champsimtrace.xz

Region of Interest Statistics

CPU 0 cumulative IPC: 0.648003 instructions: 100000002 cycles: 154320284
CPU 0 Branch Prediction Accuracy: 83.4045% MPKI: 29.702 Average ROB Occupancy at Mispredict: 12.8958
Branch type MPKI
BRANCH_DIRECT_JUMP: 1.01951
BRANCH_INDIRECT: 15.3612
BRANCH_CONDITIONAL: 9.64145
BRANCH_DIRECT_CALL: 1.83112
BRANCH_INDIRECT_CALL: 0.51536
BRANCH_RETURN: 1.33338

Instructions large pages: 0
Instructions small pages: 1123
Large page distribution for instructions: 0%

Data large pages: 0
Data small pages: 10359
Large page distribution for data: 0%

cpu0_L1I TOTAL       ACCESS:   34732627  HIT:   26935917  MISS:    7796710  iACCESS:   34732627  iHIT:   26935917  iMISS:    7796710  dACCESS:          0  dHIT:          0  dMISS:          0  itACCESS:          0  itHIT:          0  itMISS:          0  dtACCESS:          0  dtHIT:          0  dtMISS:          0
cpu0_L1I LOAD         ACCESS:   10197478  HIT:    7998075  MISS:    2199403  iACCESS:   10197478  iHIT:    7998075  iMISS:    2199403  dACCESS:          0  dHIT:          0  dMISS:          0  itACCESS:          0  itHIT:          0  itMISS:          0  dtACCESS:          0  dtHIT:          0  dtMISS:          0
cpu0_L1I RFO          ACCESS:          0  HIT:          0  MISS:          0  iACCESS:          0  iHIT:          0  iMISS:          0  dACCESS:          0  dHIT:          0  dMISS:          0  itACCESS:          0  itHIT:          0  itMISS:          0  dtACCESS:          0  dtHIT:          0  dtMISS:          0
cpu0_L1I PREFETCH     ACCESS:   24535149  HIT:   18937842  MISS:    5597307  iACCESS:   24535149  iHIT:   18937842  iMISS:    5597307  dACCESS:          0  dHIT:          0  dMISS:          0  itACCESS:          0  itHIT:          0  itMISS:          0  dtACCESS:          0  dtHIT:          0  dtMISS:          0
cpu0_L1I WRITE        ACCESS:          0  HIT:          0  MISS:          0  iACCESS:          0  iHIT:          0  iMISS:          0  dACCESS:          0  dHIT:          0  dMISS:          0  itACCESS:          0  itHIT:          0  itMISS:          0  dtACCESS:          0  dtHIT:          0  dtMISS:          0
cpu0_L1I TRANSLATION  ACCESS:          0  HIT:          0  MISS:          0  iACCESS:          0  iHIT:          0  iMISS:          0  dACCESS:          0  dHIT:          0  dMISS:          0  itACCESS:          0  itHIT:          0  itMISS:          0  dtACCESS:          0  dtHIT:          0  dtMISS:          0
cpu0_L1I PREFETCH  REQUESTED:   27110434  ISSUED:   27110434  CROSSED:          0  USEFUL:    1891370  USELESS:     630605
cpu0_L1I AVERAGE iMISS LATENCY: 13.2266 cycles
cpu0_L1I AVERAGE dMISS LATENCY: 0 cycles
cpu0_L1I AVERAGE itMISS LATENCY: 0 cycles
cpu0_L1I AVERAGE dtMISS LATENCY: 0 cycles
cpu0_L1I PAGE CROSSINGS (TLB HIT):         0 
cpu0_L1I PAGE CROSSINGS (TLB MISS):         0 
cpu0_L1I AVERAGE MISS LATENCY: 13.2266 cycles
cpu0_ITLB TOTAL       ACCESS:   29019417  HIT:   27030350  MISS:    1989067  iACCESS:   29019417  iHIT:   27030350  iMISS:    1989067  dACCESS:          0  dHIT:          0  dMISS:          0  itACCESS:          0  itHIT:          0  itMISS:          0  dtACCESS:          0  dtHIT:          0  dtMISS:          0
cpu0_ITLB LOAD         ACCESS:   29019417  HIT:   27030350  MISS:    1989067  iACCESS:   29019417  iHIT:   27030350  iMISS:    1989067  dACCESS:          0  dHIT:          0  dMISS:          0  itACCESS:          0  itHIT:          0  itMISS:          0  dtACCESS:          0  dtHIT:          0  dtMISS:          0
cpu0_ITLB RFO          ACCESS:          0  HIT:          0  MISS:          0  iACCESS:          0  iHIT:          0  iMISS:          0  dACCESS:          0  dHIT:          0  dMISS:          0  itACCESS:          0  itHIT:          0  itMISS:          0  dtACCESS:          0  dtHIT:          0  dtMISS:          0
cpu0_ITLB PREFETCH     ACCESS:          0  HIT:          0  MISS:          0  iACCESS:          0  iHIT:          0  iMISS:          0  dACCESS:          0  dHIT:          0  dMISS:          0  itACCESS:          0  itHIT:          0  itMISS:          0  dtACCESS:          0  dtHIT:          0  dtMISS:          0
cpu0_ITLB WRITE        ACCESS:          0  HIT:          0  MISS:          0  iACCESS:          0  iHIT:          0  iMISS:          0  dACCESS:          0  dHIT:          0  dMISS:          0  itACCESS:          0  itHIT:          0  itMISS:          0  dtACCESS:          0  dtHIT:          0  dtMISS:          0
cpu0_ITLB TRANSLATION  ACCESS:          0  HIT:          0  MISS:          0  iACCESS:          0  iHIT:          0  iMISS:          0  dACCESS:          0  dHIT:          0  dMISS:          0  itACCESS:          0  itHIT:          0  itMISS:          0  dtACCESS:          0  dtHIT:          0  dtMISS:          0
cpu0_ITLB PREFETCH  REQUESTED:          0  ISSUED:          0  CROSSED:          0  USEFUL:     321558  USELESS:      67434
cpu0_ITLB AVERAGE iMISS LATENCY: 5.08921 cycles
cpu0_ITLB AVERAGE dMISS LATENCY: 0 cycles
cpu0_ITLB AVERAGE itMISS LATENCY: 0 cycles
cpu0_ITLB AVERAGE dtMISS LATENCY: 0 cycles
cpu0_ITLB PAGE CROSSINGS (TLB HIT):         0 
cpu0_ITLB PAGE CROSSINGS (TLB MISS):         0 
cpu0_ITLB AVERAGE MISS LATENCY: 5.08921 cycles
cpu0_DTLB TOTAL       ACCESS:   27691552  HIT:   25650924  MISS:    2040628  iACCESS:          0  iHIT:          0  iMISS:          0  dACCESS:   27691552  dHIT:   25650924  dMISS:    2040628  itACCESS:          0  itHIT:          0  itMISS:          0  dtACCESS:          0  dtHIT:          0  dtMISS:          0
cpu0_DTLB LOAD         ACCESS:   27691552  HIT:   25650924  MISS:    2040628  iACCESS:          0  iHIT:          0  iMISS:          0  dACCESS:   27691552  dHIT:   25650924  dMISS:    2040628  itACCESS:          0  itHIT:          0  itMISS:          0  dtACCESS:          0  dtHIT:          0  dtMISS:          0
cpu0_DTLB RFO          ACCESS:          0  HIT:          0  MISS:          0  iACCESS:          0  iHIT:          0  iMISS:          0  dACCESS:          0  dHIT:          0  dMISS:          0  itACCESS:          0  itHIT:          0  itMISS:          0  dtACCESS:          0  dtHIT:          0  dtMISS:          0
cpu0_DTLB PREFETCH     ACCESS:          0  HIT:          0  MISS:          0  iACCESS:          0  iHIT:          0  iMISS:          0  dACCESS:          0  dHIT:          0  dMISS:          0  itACCESS:          0  itHIT:          0  itMISS:          0  dtACCESS:          0  dtHIT:          0  dtMISS:          0
cpu0_DTLB WRITE        ACCESS:          0  HIT:          0  MISS:          0  iACCESS:          0  iHIT:          0  iMISS:          0  dACCESS:          0  dHIT:          0  dMISS:          0  itACCESS:          0  itHIT:          0  itMISS:          0  dtACCESS:          0  dtHIT:          0  dtMISS:          0
cpu0_DTLB TRANSLATION  ACCESS:          0  HIT:          0  MISS:          0  iACCESS:          0  iHIT:          0  iMISS:          0  dACCESS:          0  dHIT:          0  dMISS:          0  itACCESS:          0  itHIT:          0  itMISS:          0  dtACCESS:          0  dtHIT:          0  dtMISS:          0
cpu0_DTLB PREFETCH  REQUESTED:          0  ISSUED:          0  CROSSED:          0  USEFUL:          0  USELESS:          0
cpu0_DTLB AVERAGE iMISS LATENCY: 0 cycles
cpu0_DTLB AVERAGE dMISS LATENCY: 15.1754 cycles
cpu0_DTLB AVERAGE itMISS LATENCY: 0 cycles
cpu0_DTLB AVERAGE dtMISS LATENCY: 0 cycles
cpu0_DTLB PAGE CROSSINGS (TLB HIT):         0 
cpu0_DTLB PAGE CROSSINGS (TLB MISS):         0 
cpu0_DTLB AVERAGE MISS LATENCY: 15.1754 cycles
cpu0_STLB TOTAL       ACCESS:    1626341  HIT:    1451751  MISS:     174590  iACCESS:     388997  iHIT:     325803  iMISS:      63194  dACCESS:    1237344  dHIT:    1125948  dMISS:     111396  itACCESS:          0  itHIT:          0  itMISS:          0  dtACCESS:          0  dtHIT:          0  dtMISS:          0
cpu0_STLB LOAD         ACCESS:    1626341  HIT:    1451751  MISS:     174590  iACCESS:     388997  iHIT:     325803  iMISS:      63194  dACCESS:    1237344  dHIT:    1125948  dMISS:     111396  itACCESS:          0  itHIT:          0  itMISS:          0  dtACCESS:          0  dtHIT:          0  dtMISS:          0
cpu0_STLB RFO          ACCESS:          0  HIT:          0  MISS:          0  iACCESS:          0  iHIT:          0  iMISS:          0  dACCESS:          0  dHIT:          0  dMISS:          0  itACCESS:          0  itHIT:          0  itMISS:          0  dtACCESS:          0  dtHIT:          0  dtMISS:          0
cpu0_STLB PREFETCH     ACCESS:          0  HIT:          0  MISS:          0  iACCESS:          0  iHIT:          0  iMISS:          0  dACCESS:          0  dHIT:          0  dMISS:          0  itACCESS:          0  itHIT:          0  itMISS:          0  dtACCESS:          0  dtHIT:          0  dtMISS:          0
cpu0_STLB WRITE        ACCESS:          0  HIT:          0  MISS:          0  iACCESS:          0  iHIT:          0  iMISS:          0  dACCESS:          0  dHIT:          0  dMISS:          0  itACCESS:          0  itHIT:          0  itMISS:          0  dtACCESS:          0  dtHIT:          0  dtMISS:          0
cpu0_STLB TRANSLATION  ACCESS:          0  HIT:          0  MISS:          0  iACCESS:          0  iHIT:          0  iMISS:          0  dACCESS:          0  dHIT:          0  dMISS:          0  itACCESS:          0  itHIT:          0  itMISS:          0  dtACCESS:          0  dtHIT:          0  dtMISS:          0
cpu0_STLB PREFETCH  REQUESTED:          0  ISSUED:          0  CROSSED:          0  USEFUL:          0  USELESS:          0
cpu0_STLB AVERAGE iMISS LATENCY: 40.338 cycles
cpu0_STLB AVERAGE dMISS LATENCY: 120.858 cycles
cpu0_STLB AVERAGE itMISS LATENCY: 0 cycles
cpu0_STLB AVERAGE dtMISS LATENCY: 0 cycles
cpu0_STLB PAGE CROSSINGS (TLB HIT):         0 
cpu0_STLB PAGE CROSSINGS (TLB MISS):         0 
cpu0_STLB AVERAGE MISS LATENCY: 161.196 cycles
cpu0_L1D TOTAL       ACCESS:   41496615  HIT:   37931606  MISS:    3565009  iACCESS:          0  iHIT:          0  iMISS:          0  dACCESS:   41258777  dHIT:   37910360  dMISS:    3348417  itACCESS:      68616  itHIT:       9776  itMISS:      58840  dtACCESS:     169222  dtHIT:      11470  dtMISS:     157752
cpu0_L1D LOAD         ACCESS:   18902144  HIT:   17371598  MISS:    1530546  iACCESS:          0  iHIT:          0  iMISS:          0  dACCESS:   18902144  dHIT:   17371598  dMISS:    1530546  itACCESS:          0  itHIT:          0  itMISS:          0  dtACCESS:          0  dtHIT:          0  dtMISS:          0
cpu0_L1D RFO          ACCESS:          0  HIT:          0  MISS:          0  iACCESS:          0  iHIT:          0  iMISS:          0  dACCESS:          0  dHIT:          0  dMISS:          0  itACCESS:          0  itHIT:          0  itMISS:          0  dtACCESS:          0  dtHIT:          0  dtMISS:          0
cpu0_L1D PREFETCH     ACCESS:   12137389  HIT:   10766091  MISS:    1371298  iACCESS:          0  iHIT:          0  iMISS:          0  dACCESS:   12137389  dHIT:   10766091  dMISS:    1371298  itACCESS:          0  itHIT:          0  itMISS:          0  dtACCESS:          0  dtHIT:          0  dtMISS:          0
cpu0_L1D WRITE        ACCESS:   10219244  HIT:    9772671  MISS:     446573  iACCESS:          0  iHIT:          0  iMISS:          0  dACCESS:   10219244  dHIT:    9772671  dMISS:     446573  itACCESS:          0  itHIT:          0  itMISS:          0  dtACCESS:          0  dtHIT:          0  dtMISS:          0
cpu0_L1D TRANSLATION  ACCESS:     237838  HIT:      21246  MISS:     216592  iACCESS:          0  iHIT:          0  iMISS:          0  dACCESS:          0  dHIT:          0  dMISS:          0  itACCESS:      68616  itHIT:       9776  itMISS:      58840  dtACCESS:     169222  dtHIT:      11470  dtMISS:     157752
cpu0_L1D PREFETCH  REQUESTED:   18902144  ISSUED:   16921867  CROSSED:          0  USEFUL:     306022  USELESS:     702618
cpu0_L1D AVERAGE iMISS LATENCY: 0 cycles
cpu0_L1D AVERAGE dMISS LATENCY: 32.6833 cycles
cpu0_L1D AVERAGE itMISS LATENCY: 1.81477 cycles
cpu0_L1D AVERAGE dtMISS LATENCY: 5.17836 cycles
cpu0_L1D PAGE CROSSINGS (TLB HIT):         0 
cpu0_L1D PAGE CROSSINGS (TLB MISS):         0 
cpu0_L1D AVERAGE MISS LATENCY: 39.6764 cycles
cpu0_L2C TOTAL       ACCESS:    6947794  HIT:    4021938  MISS:    2925856  iACCESS:    3285548  iHIT:    2189831  iMISS:    1095717  dACCESS:    3456191  dHIT:    1801176  dMISS:    1655015  itACCESS:      58840  itHIT:      11516  itMISS:      47324  dtACCESS:     147215  dtHIT:      19415  dtMISS:     127800
cpu0_L2C LOAD         ACCESS:    1735594  HIT:    1040695  MISS:     694899  iACCESS:     798916  iHIT:     557898  iMISS:     241018  dACCESS:     936678  dHIT:     482797  dMISS:     453881  itACCESS:          0  itHIT:          0  itMISS:          0  dtACCESS:          0  dtHIT:          0  dtMISS:          0
cpu0_L2C RFO          ACCESS:     157826  HIT:      72649  MISS:      85177  iACCESS:          0  iHIT:          0  iMISS:          0  dACCESS:     157826  dHIT:      72649  dMISS:      85177  itACCESS:          0  itHIT:          0  itMISS:          0  dtACCESS:          0  dtHIT:          0  dtMISS:          0
cpu0_L2C PREFETCH     ACCESS:    4560895  HIT:    2591653  MISS:    1969242  iACCESS:    2486632  iHIT:    1631933  iMISS:     854699  dACCESS:    2074263  dHIT:     959720  dMISS:    1114543  itACCESS:          0  itHIT:          0  itMISS:          0  dtACCESS:          0  dtHIT:          0  dtMISS:          0
cpu0_L2C WRITE        ACCESS:     287424  HIT:     286010  MISS:       1414  iACCESS:          0  iHIT:          0  iMISS:          0  dACCESS:     287424  dHIT:     286010  dMISS:       1414  itACCESS:          0  itHIT:          0  itMISS:          0  dtACCESS:          0  dtHIT:          0  dtMISS:          0
cpu0_L2C TRANSLATION  ACCESS:     206055  HIT:      30931  MISS:     175124  iACCESS:          0  iHIT:          0  iMISS:          0  dACCESS:          0  dHIT:          0  dMISS:          0  itACCESS:      58840  itHIT:      11516  itMISS:      47324  dtACCESS:     147215  dtHIT:      19415  dtMISS:     127800
cpu0_L2C PREFETCH  REQUESTED:    1311420  ISSUED:    1311420  CROSSED:          0  USEFUL:     300980  USELESS:     229194
cpu0_L2C AVERAGE iMISS LATENCY: 25.1155 cycles
cpu0_L2C AVERAGE dMISS LATENCY: 46.8198 cycles
cpu0_L2C AVERAGE itMISS LATENCY: 2.01353 cycles
cpu0_L2C AVERAGE dtMISS LATENCY: 5.80904 cycles
cpu0_L2C PAGE CROSSINGS (TLB HIT):         0 
cpu0_L2C PAGE CROSSINGS (TLB MISS):         0 
cpu0_L2C AVERAGE MISS LATENCY: 79.7578 cycles
LLC TOTAL       ACCESS:    2953842  HIT:    1828771  MISS:    1125071  iACCESS:    1042524  iHIT:     684776  iMISS:     357748  dACCESS:    1736194  dHIT:    1078239  dMISS:     657955  itACCESS:      47324  itHIT:      18316  itMISS:      29008  dtACCESS:     127800  dtHIT:      47440  dtMISS:      80360
LLC LOAD         ACCESS:     692863  HIT:     445470  MISS:     247393  iACCESS:     239906  iHIT:     160183  iMISS:      79723  dACCESS:     452957  dHIT:     285287  dMISS:     167670  itACCESS:          0  itHIT:          0  itMISS:          0  dtACCESS:          0  dtHIT:          0  dtMISS:          0
LLC RFO          ACCESS:      85177  HIT:      43801  MISS:      41376  iACCESS:          0  iHIT:          0  iMISS:          0  dACCESS:      85177  dHIT:      43801  dMISS:      41376  itACCESS:          0  itHIT:          0  itMISS:          0  dtACCESS:          0  dtHIT:          0  dtMISS:          0
LLC PREFETCH     ACCESS:    1861401  HIT:    1140488  MISS:     720913  iACCESS:     802618  iHIT:     524593  iMISS:     278025  dACCESS:    1058783  dHIT:     615895  dMISS:     442888  itACCESS:          0  itHIT:          0  itMISS:          0  dtACCESS:          0  dtHIT:          0  dtMISS:          0
LLC WRITE        ACCESS:     139277  HIT:     133256  MISS:       6021  iACCESS:          0  iHIT:          0  iMISS:          0  dACCESS:     139277  dHIT:     133256  dMISS:       6021  itACCESS:          0  itHIT:          0  itMISS:          0  dtACCESS:          0  dtHIT:          0  dtMISS:          0
LLC TRANSLATION  ACCESS:     175124  HIT:      65756  MISS:     109368  iACCESS:          0  iHIT:          0  iMISS:          0  dACCESS:          0  dHIT:          0  dMISS:          0  itACCESS:      47324  itHIT:      18316  itMISS:      29008  dtACCESS:     127800  dtHIT:      47440  dtMISS:      80360
LLC PREFETCH  REQUESTED:          0  ISSUED:          0  CROSSED:          0  USEFUL:          0  USELESS:          0
LLC AVERAGE iMISS LATENCY: 47.3079 cycles
LLC AVERAGE dMISS LATENCY: 94.5148 cycles
LLC AVERAGE itMISS LATENCY: 4.41288 cycles
LLC AVERAGE dtMISS LATENCY: 12.8839 cycles
LLC PAGE CROSSINGS (TLB HIT):         0 
LLC PAGE CROSSINGS (TLB MISS):         0 
LLC AVERAGE MISS LATENCY: 159.12 cycles

PageTableWalker TOTAL       ACCESS:      85572  
PageTableWalker AVERAGE LATENCY: 5.25679 cycles
PageTableWalker TOTAL LATENCY: 449834 cycles

DRAM Statistics
Channel 0
 RQ ROW_BUFFER_HIT:     293598
  ROW_BUFFER_MISS:     824657
 AVG DBUS CONGESTED CYCLE:    3.62141
 WQ ROW_BUFFER_HIT:      23993
  ROW_BUFFER_MISS:      23233  FULL:          0

