last_page:0x200000000000000
VMEM_RES_CAP:0x100000
PAGE_SIZE:4096
LOG2_PAGE_SIZE:12
LOG2_PAGE_TABLE_SIZE:9
page_table_levels:5
WARNING: physical memory size is smaller than virtual memory size
FDiP enabled with aggresivity 16

*** ChampSim Multicore Out-of-Order Simulator ***

Warmup Instructions: 50000000
Simulation Instructions: 100000000
Number of CPUs: 1
Small page size: 4096
Large page size: 2097152

CPU 0 Bimodal branch predictor
Basic BTB sets: 1024 ways: 8 indirect buffer size: 4096 RAS size: 64
Instruction page size distrubution: 0
Loading instruction page size distribution from /home/bsc/bsc018186/scratch/itp_asplos25_AE/dump/srv346_ap.pdst
Data page size distrubution: 0
Loading data page size distribution from /home/bsc/bsc018186/scratch/itp_asplos25_AE/dump/srv346_ap.pdst
cpu0_L2C IP-based stride prefetcher
cpu0_L1D next line prefetcher
cpu0_L1I next line prefetcher
Off-chip DRAM Size: 4 GiB Channels: 1 Width: 64-bit Data Rate: 3200 MT/s
Heartbeat CPU 0 instructions: 10000000 cycles: 2500247 heartbeat IPC: 3.99961 cumulative IPC: 3.99961 (Simulation time: 0 hr 0 min 34 sec) 
Heartbeat CPU 0 instructions: 20000002 cycles: 5000304 heartbeat IPC: 3.99991 cumulative IPC: 3.99976 (Simulation time: 0 hr 1 min 10 sec) 
Heartbeat CPU 0 instructions: 30000001 cycles: 7500305 heartbeat IPC: 4 cumulative IPC: 3.99984 (Simulation time: 0 hr 1 min 47 sec) 
Heartbeat CPU 0 instructions: 40000001 cycles: 10000342 heartbeat IPC: 3.99995 cumulative IPC: 3.99987 (Simulation time: 0 hr 2 min 24 sec) 
Heartbeat CPU 0 instructions: 50000001 cycles: 12500357 heartbeat IPC: 3.99998 cumulative IPC: 3.99989 (Simulation time: 0 hr 3 min 1 sec) 
Warmup finished CPU 0 instructions: 50000001 cycles: 12500358 cumulative IPC: 3.99989 (Simulation time: 0 hr 3 min 1 sec) 

Warmup complete CPU 0 instructions: 50000001 cycles: 12500358 (Simulation time: 0 hr 3 min 1 sec) 

Heartbeat CPU 0 instructions: 60000001 cycles: 28120488 heartbeat IPC: 0.6402 cumulative IPC: 0.6402 (Simulation time: 0 hr 4 min 3 sec) 
Heartbeat CPU 0 instructions: 70000004 cycles: 43212288 heartbeat IPC: 0.662612 cumulative IPC: 0.651213 (Simulation time: 0 hr 5 min 11 sec) 
Heartbeat CPU 0 instructions: 80000001 cycles: 58433813 heartbeat IPC: 0.656965 cumulative IPC: 0.653119 (Simulation time: 0 hr 6 min 11 sec) 
Heartbeat CPU 0 instructions: 90000001 cycles: 73838967 heartbeat IPC: 0.649134 cumulative IPC: 0.652118 (Simulation time: 0 hr 7 min 11 sec) 
Heartbeat CPU 0 instructions: 100000002 cycles: 87995112 heartbeat IPC: 0.706408 cumulative IPC: 0.662298 (Simulation time: 0 hr 8 min 10 sec) 
*** Reached end of trace: /gpfs/projects/bsc18/MN4/bsc18/romol/ChampSim/traces/qualcomm_srv/srv346_ap.champsimtrace.xz
Heartbeat CPU 0 instructions: 110000004 cycles: 103215268 heartbeat IPC: 0.657024 cumulative IPC: 0.661413 (Simulation time: 0 hr 9 min 10 sec) 
Heartbeat CPU 0 instructions: 120000004 cycles: 118245041 heartbeat IPC: 0.665347 cumulative IPC: 0.661972 (Simulation time: 0 hr 10 min 10 sec) 
Heartbeat CPU 0 instructions: 130000000 cycles: 132992987 heartbeat IPC: 0.678061 cumulative IPC: 0.663942 (Simulation time: 0 hr 11 min 9 sec) 
Heartbeat CPU 0 instructions: 140000001 cycles: 148426168 heartbeat IPC: 0.647955 cumulative IPC: 0.662126 (Simulation time: 0 hr 12 min 10 sec) 
Heartbeat CPU 0 instructions: 150000001 cycles: 162976364 heartbeat IPC: 0.687276 cumulative IPC: 0.664558 (Simulation time: 0 hr 13 min 9 sec) 
Simulation finished CPU 0 instructions: 100000000 cycles: 150476007 cumulative IPC: 0.664558 (Simulation time: 0 hr 13 min 9 sec) 

Simulation complete CPU 0 instructions: 100000000 cycles: 150476007 (Simulation time: 0 hr 13 min 9 sec) 


ChampSim completed all CPUs

Saving instructions large page distribution to /home/bsc/bsc018186/scratch/itp_asplos25_AE/dump/srv346_ap.pdst...
Saving data large page distribution to /home/bsc/bsc018186/scratch/itp_asplos25_AE/dump/srv346_ap.pdst...
=== Simulation ===
CPU 0 runs /gpfs/projects/bsc18/MN4/bsc18/romol/ChampSim/traces/qualcomm_srv/srv346_ap.champsimtrace.xz

Region of Interest Statistics

CPU 0 cumulative IPC: 0.664558 instructions: 100000000 cycles: 150476007
CPU 0 Branch Prediction Accuracy: 83.3954% MPKI: 29.7758 Average ROB Occupancy at Mispredict: 12.79
Branch type MPKI
BRANCH_DIRECT_JUMP: 0.952351
BRANCH_INDIRECT: 15.4252
BRANCH_CONDITIONAL: 9.75544
BRANCH_DIRECT_CALL: 1.82252
BRANCH_INDIRECT_CALL: 0.497561
BRANCH_RETURN: 1.32278

Instructions large pages: 0
Instructions small pages: 9805
Large page distribution for instructions: 0%

Data large pages: 0
Data small pages: 8937
Large page distribution for data: 0%

cpu0_L1I TOTAL       ACCESS:   34561873  HIT:   26665069  MISS:    7896804  iACCESS:   34561873  iHIT:   26665069  iMISS:    7896804  dACCESS:          0  dHIT:          0  dMISS:          0  itACCESS:          0  itHIT:          0  itMISS:          0  dtACCESS:          0  dtHIT:          0  dtMISS:          0
cpu0_L1I LOAD         ACCESS:   10089426  HIT:    7869818  MISS:    2219608  iACCESS:   10089426  iHIT:    7869818  iMISS:    2219608  dACCESS:          0  dHIT:          0  dMISS:          0  itACCESS:          0  itHIT:          0  itMISS:          0  dtACCESS:          0  dtHIT:          0  dtMISS:          0
cpu0_L1I RFO          ACCESS:          0  HIT:          0  MISS:          0  iACCESS:          0  iHIT:          0  iMISS:          0  dACCESS:          0  dHIT:          0  dMISS:          0  itACCESS:          0  itHIT:          0  itMISS:          0  dtACCESS:          0  dtHIT:          0  dtMISS:          0
cpu0_L1I PREFETCH     ACCESS:   24472447  HIT:   18795251  MISS:    5677196  iACCESS:   24472447  iHIT:   18795251  iMISS:    5677196  dACCESS:          0  dHIT:          0  dMISS:          0  itACCESS:          0  itHIT:          0  itMISS:          0  dtACCESS:          0  dtHIT:          0  dtMISS:          0
cpu0_L1I WRITE        ACCESS:          0  HIT:          0  MISS:          0  iACCESS:          0  iHIT:          0  iMISS:          0  dACCESS:          0  dHIT:          0  dMISS:          0  itACCESS:          0  itHIT:          0  itMISS:          0  dtACCESS:          0  dtHIT:          0  dtMISS:          0
cpu0_L1I TRANSLATION  ACCESS:          0  HIT:          0  MISS:          0  iACCESS:          0  iHIT:          0  iMISS:          0  dACCESS:          0  dHIT:          0  dMISS:          0  itACCESS:          0  itHIT:          0  itMISS:          0  dtACCESS:          0  dtHIT:          0  dtMISS:          0
cpu0_L1I PREFETCH  REQUESTED:   26958678  ISSUED:   26958678  CROSSED:          0  USEFUL:    1926349  USELESS:     633391
cpu0_L1I AVERAGE iMISS LATENCY: 12.6377 cycles
cpu0_L1I AVERAGE dMISS LATENCY: 0 cycles
cpu0_L1I AVERAGE itMISS LATENCY: 0 cycles
cpu0_L1I AVERAGE dtMISS LATENCY: 0 cycles
cpu0_L1I PAGE CROSSINGS (TLB HIT):         0 
cpu0_L1I PAGE CROSSINGS (TLB MISS):         0 
cpu0_L1I AVERAGE MISS LATENCY: 12.6377 cycles
cpu0_ITLB TOTAL       ACCESS:   28893846  HIT:   26885769  MISS:    2008077  iACCESS:   28893846  iHIT:   26885769  iMISS:    2008077  dACCESS:          0  dHIT:          0  dMISS:          0  itACCESS:          0  itHIT:          0  itMISS:          0  dtACCESS:          0  dtHIT:          0  dtMISS:          0
cpu0_ITLB LOAD         ACCESS:   28893846  HIT:   26885769  MISS:    2008077  iACCESS:   28893846  iHIT:   26885769  iMISS:    2008077  dACCESS:          0  dHIT:          0  dMISS:          0  itACCESS:          0  itHIT:          0  itMISS:          0  dtACCESS:          0  dtHIT:          0  dtMISS:          0
cpu0_ITLB RFO          ACCESS:          0  HIT:          0  MISS:          0  iACCESS:          0  iHIT:          0  iMISS:          0  dACCESS:          0  dHIT:          0  dMISS:          0  itACCESS:          0  itHIT:          0  itMISS:          0  dtACCESS:          0  dtHIT:          0  dtMISS:          0
cpu0_ITLB PREFETCH     ACCESS:          0  HIT:          0  MISS:          0  iACCESS:          0  iHIT:          0  iMISS:          0  dACCESS:          0  dHIT:          0  dMISS:          0  itACCESS:          0  itHIT:          0  itMISS:          0  dtACCESS:          0  dtHIT:          0  dtMISS:          0
cpu0_ITLB WRITE        ACCESS:          0  HIT:          0  MISS:          0  iACCESS:          0  iHIT:          0  iMISS:          0  dACCESS:          0  dHIT:          0  dMISS:          0  itACCESS:          0  itHIT:          0  itMISS:          0  dtACCESS:          0  dtHIT:          0  dtMISS:          0
cpu0_ITLB TRANSLATION  ACCESS:          0  HIT:          0  MISS:          0  iACCESS:          0  iHIT:          0  iMISS:          0  dACCESS:          0  dHIT:          0  dMISS:          0  itACCESS:          0  itHIT:          0  itMISS:          0  dtACCESS:          0  dtHIT:          0  dtMISS:          0
cpu0_ITLB PREFETCH  REQUESTED:          0  ISSUED:          0  CROSSED:          0  USEFUL:     324869  USELESS:      62619
cpu0_ITLB AVERAGE iMISS LATENCY: 4.93595 cycles
cpu0_ITLB AVERAGE dMISS LATENCY: 0 cycles
cpu0_ITLB AVERAGE itMISS LATENCY: 0 cycles
cpu0_ITLB AVERAGE dtMISS LATENCY: 0 cycles
cpu0_ITLB PAGE CROSSINGS (TLB HIT):         0 
cpu0_ITLB PAGE CROSSINGS (TLB MISS):         0 
cpu0_ITLB AVERAGE MISS LATENCY: 4.93595 cycles
cpu0_DTLB TOTAL       ACCESS:   27653193  HIT:   25813352  MISS:    1839841  iACCESS:          0  iHIT:          0  iMISS:          0  dACCESS:   27653193  dHIT:   25813352  dMISS:    1839841  itACCESS:          0  itHIT:          0  itMISS:          0  dtACCESS:          0  dtHIT:          0  dtMISS:          0
cpu0_DTLB LOAD         ACCESS:   27653193  HIT:   25813352  MISS:    1839841  iACCESS:          0  iHIT:          0  iMISS:          0  dACCESS:   27653193  dHIT:   25813352  dMISS:    1839841  itACCESS:          0  itHIT:          0  itMISS:          0  dtACCESS:          0  dtHIT:          0  dtMISS:          0
cpu0_DTLB RFO          ACCESS:          0  HIT:          0  MISS:          0  iACCESS:          0  iHIT:          0  iMISS:          0  dACCESS:          0  dHIT:          0  dMISS:          0  itACCESS:          0  itHIT:          0  itMISS:          0  dtACCESS:          0  dtHIT:          0  dtMISS:          0
cpu0_DTLB PREFETCH     ACCESS:          0  HIT:          0  MISS:          0  iACCESS:          0  iHIT:          0  iMISS:          0  dACCESS:          0  dHIT:          0  dMISS:          0  itACCESS:          0  itHIT:          0  itMISS:          0  dtACCESS:          0  dtHIT:          0  dtMISS:          0
cpu0_DTLB WRITE        ACCESS:          0  HIT:          0  MISS:          0  iACCESS:          0  iHIT:          0  iMISS:          0  dACCESS:          0  dHIT:          0  dMISS:          0  itACCESS:          0  itHIT:          0  itMISS:          0  dtACCESS:          0  dtHIT:          0  dtMISS:          0
cpu0_DTLB TRANSLATION  ACCESS:          0  HIT:          0  MISS:          0  iACCESS:          0  iHIT:          0  iMISS:          0  dACCESS:          0  dHIT:          0  dMISS:          0  itACCESS:          0  itHIT:          0  itMISS:          0  dtACCESS:          0  dtHIT:          0  dtMISS:          0
cpu0_DTLB PREFETCH  REQUESTED:          0  ISSUED:          0  CROSSED:          0  USEFUL:          0  USELESS:          0
cpu0_DTLB AVERAGE iMISS LATENCY: 0 cycles
cpu0_DTLB AVERAGE dMISS LATENCY: 15.4267 cycles
cpu0_DTLB AVERAGE itMISS LATENCY: 0 cycles
cpu0_DTLB AVERAGE dtMISS LATENCY: 0 cycles
cpu0_DTLB PAGE CROSSINGS (TLB HIT):         0 
cpu0_DTLB PAGE CROSSINGS (TLB MISS):         0 
cpu0_DTLB AVERAGE MISS LATENCY: 15.4267 cycles
cpu0_STLB TOTAL       ACCESS:    1509348  HIT:    1348479  MISS:     160869  iACCESS:     387493  iHIT:     331192  iMISS:      56301  dACCESS:    1121855  dHIT:    1017287  dMISS:     104568  itACCESS:          0  itHIT:          0  itMISS:          0  dtACCESS:          0  dtHIT:          0  dtMISS:          0
cpu0_STLB LOAD         ACCESS:    1509348  HIT:    1348479  MISS:     160869  iACCESS:     387493  iHIT:     331192  iMISS:      56301  dACCESS:    1121855  dHIT:    1017287  dMISS:     104568  itACCESS:          0  itHIT:          0  itMISS:          0  dtACCESS:          0  dtHIT:          0  dtMISS:          0
cpu0_STLB RFO          ACCESS:          0  HIT:          0  MISS:          0  iACCESS:          0  iHIT:          0  iMISS:          0  dACCESS:          0  dHIT:          0  dMISS:          0  itACCESS:          0  itHIT:          0  itMISS:          0  dtACCESS:          0  dtHIT:          0  dtMISS:          0
cpu0_STLB PREFETCH     ACCESS:          0  HIT:          0  MISS:          0  iACCESS:          0  iHIT:          0  iMISS:          0  dACCESS:          0  dHIT:          0  dMISS:          0  itACCESS:          0  itHIT:          0  itMISS:          0  dtACCESS:          0  dtHIT:          0  dtMISS:          0
cpu0_STLB WRITE        ACCESS:          0  HIT:          0  MISS:          0  iACCESS:          0  iHIT:          0  iMISS:          0  dACCESS:          0  dHIT:          0  dMISS:          0  itACCESS:          0  itHIT:          0  itMISS:          0  dtACCESS:          0  dtHIT:          0  dtMISS:          0
cpu0_STLB TRANSLATION  ACCESS:          0  HIT:          0  MISS:          0  iACCESS:          0  iHIT:          0  iMISS:          0  dACCESS:          0  dHIT:          0  dMISS:          0  itACCESS:          0  itHIT:          0  itMISS:          0  dtACCESS:          0  dtHIT:          0  dtMISS:          0
cpu0_STLB PREFETCH  REQUESTED:          0  ISSUED:          0  CROSSED:          0  USEFUL:          0  USELESS:          0
cpu0_STLB AVERAGE iMISS LATENCY: 42.5859 cycles
cpu0_STLB AVERAGE dMISS LATENCY: 120.762 cycles
cpu0_STLB AVERAGE itMISS LATENCY: 0 cycles
cpu0_STLB AVERAGE dtMISS LATENCY: 0 cycles
cpu0_STLB PAGE CROSSINGS (TLB HIT):         0 
cpu0_STLB PAGE CROSSINGS (TLB MISS):         0 
cpu0_STLB AVERAGE MISS LATENCY: 163.348 cycles
cpu0_L1D TOTAL       ACCESS:   41351558  HIT:   37860396  MISS:    3491162  iACCESS:          0  iHIT:          0  iMISS:          0  dACCESS:   41128926  dHIT:   37841028  dMISS:    3287898  itACCESS:      61117  itHIT:       8836  itMISS:      52281  dtACCESS:     161515  dtHIT:      10532  dtMISS:     150983
cpu0_L1D LOAD         ACCESS:   18929117  HIT:   17425089  MISS:    1504028  iACCESS:          0  iHIT:          0  iMISS:          0  dACCESS:   18929117  dHIT:   17425089  dMISS:    1504028  itACCESS:          0  itHIT:          0  itMISS:          0  dtACCESS:          0  dtHIT:          0  dtMISS:          0
cpu0_L1D RFO          ACCESS:          0  HIT:          0  MISS:          0  iACCESS:          0  iHIT:          0  iMISS:          0  dACCESS:          0  dHIT:          0  dMISS:          0  itACCESS:          0  itHIT:          0  itMISS:          0  dtACCESS:          0  dtHIT:          0  dtMISS:          0
cpu0_L1D PREFETCH     ACCESS:   12078375  HIT:   10733938  MISS:    1344437  iACCESS:          0  iHIT:          0  iMISS:          0  dACCESS:   12078375  dHIT:   10733938  dMISS:    1344437  itACCESS:          0  itHIT:          0  itMISS:          0  dtACCESS:          0  dtHIT:          0  dtMISS:          0
cpu0_L1D WRITE        ACCESS:   10121434  HIT:    9682001  MISS:     439433  iACCESS:          0  iHIT:          0  iMISS:          0  dACCESS:   10121434  dHIT:    9682001  dMISS:     439433  itACCESS:          0  itHIT:          0  itMISS:          0  dtACCESS:          0  dtHIT:          0  dtMISS:          0
cpu0_L1D TRANSLATION  ACCESS:     222632  HIT:      19368  MISS:     203264  iACCESS:          0  iHIT:          0  iMISS:          0  dACCESS:          0  dHIT:          0  dMISS:          0  itACCESS:      61117  itHIT:       8836  itMISS:      52281  dtACCESS:     161515  dtHIT:      10532  dtMISS:     150983
cpu0_L1D PREFETCH  REQUESTED:   18929117  ISSUED:   16878153  CROSSED:          0  USEFUL:     309912  USELESS:     704126
cpu0_L1D AVERAGE iMISS LATENCY: 0 cycles
cpu0_L1D AVERAGE dMISS LATENCY: 32.1281 cycles
cpu0_L1D AVERAGE itMISS LATENCY: 1.82094 cycles
cpu0_L1D AVERAGE dtMISS LATENCY: 4.90818 cycles
cpu0_L1D PAGE CROSSINGS (TLB HIT):         0 
cpu0_L1D PAGE CROSSINGS (TLB MISS):         0 
cpu0_L1D AVERAGE MISS LATENCY: 38.8572 cycles
cpu0_L2C TOTAL       ACCESS:    6995012  HIT:    4099374  MISS:    2895638  iACCESS:    3317171  iHIT:    2233915  iMISS:    1083256  dACCESS:    3487488  dHIT:    1839501  dMISS:    1647987  itACCESS:      52281  itHIT:       9423  itMISS:      42858  dtACCESS:     138072  dtHIT:      16535  dtMISS:     121537
cpu0_L2C LOAD         ACCESS:    1735402  HIT:    1054762  MISS:     680640  iACCESS:     798829  iHIT:     565375  iMISS:     233454  dACCESS:     936573  dHIT:     489387  dMISS:     447186  itACCESS:          0  itHIT:          0  itMISS:          0  dtACCESS:          0  dtHIT:          0  dtMISS:          0
cpu0_L2C RFO          ACCESS:     156048  HIT:      72136  MISS:      83912  iACCESS:          0  iHIT:          0  iMISS:          0  dACCESS:     156048  dHIT:      72136  dMISS:      83912  itACCESS:          0  itHIT:          0  itMISS:          0  dtACCESS:          0  dtHIT:          0  dtMISS:          0
cpu0_L2C PREFETCH     ACCESS:    4629268  HIT:    2663437  MISS:    1965831  iACCESS:    2518342  iHIT:    1668540  iMISS:     849802  dACCESS:    2110926  dHIT:     994897  dMISS:    1116029  itACCESS:          0  itHIT:          0  itMISS:          0  dtACCESS:          0  dtHIT:          0  dtMISS:          0
cpu0_L2C WRITE        ACCESS:     283941  HIT:     283081  MISS:        860  iACCESS:          0  iHIT:          0  iMISS:          0  dACCESS:     283941  dHIT:     283081  dMISS:        860  itACCESS:          0  itHIT:          0  itMISS:          0  dtACCESS:          0  dtHIT:          0  dtMISS:          0
cpu0_L2C TRANSLATION  ACCESS:     190353  HIT:      25958  MISS:     164395  iACCESS:          0  iHIT:          0  iMISS:          0  dACCESS:          0  dHIT:          0  dMISS:          0  itACCESS:      52281  itHIT:       9423  itMISS:      42858  dtACCESS:     138072  dtHIT:      16535  dtMISS:     121537
cpu0_L2C PREFETCH  REQUESTED:    1382290  ISSUED:    1382290  CROSSED:          0  USEFUL:     314861  USELESS:     228312
cpu0_L2C AVERAGE iMISS LATENCY: 24.0277 cycles
cpu0_L2C AVERAGE dMISS LATENCY: 44.917 cycles
cpu0_L2C AVERAGE itMISS LATENCY: 2.01771 cycles
cpu0_L2C AVERAGE dtMISS LATENCY: 5.44248 cycles
cpu0_L2C PAGE CROSSINGS (TLB HIT):         0 
cpu0_L2C PAGE CROSSINGS (TLB MISS):         0 
cpu0_L2C AVERAGE MISS LATENCY: 76.4048 cycles
LLC TOTAL       ACCESS:    2930632  HIT:    1881219  MISS:    1049413  iACCESS:    1031669  iHIT:     696343  iMISS:     335326  dACCESS:    1734568  dHIT:    1124493  dMISS:     610075  itACCESS:      42858  itHIT:      13795  itMISS:      29063  dtACCESS:     121537  dtHIT:      46588  dtMISS:      74949
LLC LOAD         ACCESS:     679276  HIT:     445860  MISS:     233416  iACCESS:     232343  iHIT:     155725  iMISS:      76618  dACCESS:     446933  dHIT:     290135  dMISS:     156798  itACCESS:          0  itHIT:          0  itMISS:          0  dtACCESS:          0  dtHIT:          0  dtMISS:          0
LLC RFO          ACCESS:      83912  HIT:      45758  MISS:      38154  iACCESS:          0  iHIT:          0  iMISS:          0  dACCESS:      83912  dHIT:      45758  dMISS:      38154  itACCESS:          0  itHIT:          0  itMISS:          0  dtACCESS:          0  dtHIT:          0  dtMISS:          0
LLC PREFETCH     ACCESS:    1867940  HIT:    1199126  MISS:     668814  iACCESS:     799326  iHIT:     540618  iMISS:     258708  dACCESS:    1068614  dHIT:     658508  dMISS:     410106  itACCESS:          0  itHIT:          0  itMISS:          0  dtACCESS:          0  dtHIT:          0  dtMISS:          0
LLC WRITE        ACCESS:     135109  HIT:     130092  MISS:       5017  iACCESS:          0  iHIT:          0  iMISS:          0  dACCESS:     135109  dHIT:     130092  dMISS:       5017  itACCESS:          0  itHIT:          0  itMISS:          0  dtACCESS:          0  dtHIT:          0  dtMISS:          0
LLC TRANSLATION  ACCESS:     164395  HIT:      60383  MISS:     104012  iACCESS:          0  iHIT:          0  iMISS:          0  dACCESS:          0  dHIT:          0  dMISS:          0  itACCESS:      42858  itHIT:      13795  itMISS:      29063  dtACCESS:     121537  dtHIT:      46588  dtMISS:      74949
LLC PREFETCH  REQUESTED:          0  ISSUED:          0  CROSSED:          0  USEFUL:          0  USELESS:          0
LLC AVERAGE iMISS LATENCY: 47.1885 cycles
LLC AVERAGE dMISS LATENCY: 94.3872 cycles
LLC AVERAGE itMISS LATENCY: 4.76594 cycles
LLC AVERAGE dtMISS LATENCY: 12.7515 cycles
LLC PAGE CROSSINGS (TLB HIT):         0 
LLC PAGE CROSSINGS (TLB MISS):         0 
LLC AVERAGE MISS LATENCY: 159.093 cycles

PageTableWalker TOTAL       ACCESS:      81673  
PageTableWalker AVERAGE LATENCY: 5.17937 cycles
PageTableWalker TOTAL LATENCY: 423014 cycles

DRAM Statistics
Channel 0
 RQ ROW_BUFFER_HIT:     266605
  ROW_BUFFER_MISS:     777716
 AVG DBUS CONGESTED CYCLE:    3.61084
 WQ ROW_BUFFER_HIT:      20640
  ROW_BUFFER_MISS:      20757  FULL:          0

