last_page:0x200000000000000
VMEM_RES_CAP:0x100000
PAGE_SIZE:4096
LOG2_PAGE_SIZE:12
LOG2_PAGE_TABLE_SIZE:9
page_table_levels:5
WARNING: physical memory size is smaller than virtual memory size
FDiP enabled with aggresivity 16

*** ChampSim Multicore Out-of-Order Simulator ***

Warmup Instructions: 50000000
Simulation Instructions: 100000000
Number of CPUs: 1
Small page size: 4096
Large page size: 2097152

CPU 0 Bimodal branch predictor
Basic BTB sets: 1024 ways: 8 indirect buffer size: 4096 RAS size: 64
Instruction page size distrubution: 0
Loading instruction page size distribution from /home/bsc/bsc018186/scratch/itp_asplos25_AE/dump/srv32_ap.pdst
Data page size distrubution: 0
Loading data page size distribution from /home/bsc/bsc018186/scratch/itp_asplos25_AE/dump/srv32_ap.pdst
cpu0_L2C IP-based stride prefetcher
cpu0_L1D next line prefetcher
cpu0_STLB using iTP with max lru@8
cpu0_STLB using iTP with instr@0 and data@2
Init sat counter with 3 bits (max:50).
cpu0_L1I next line prefetcher
Off-chip DRAM Size: 4 GiB Channels: 1 Width: 64-bit Data Rate: 3200 MT/s
Heartbeat CPU 0 instructions: 10000001 cycles: 2500120 heartbeat IPC: 3.99981 cumulative IPC: 3.99981 (Simulation time: 0 hr 0 min 37 sec) 
Heartbeat CPU 0 instructions: 20000003 cycles: 5000142 heartbeat IPC: 3.99997 cumulative IPC: 3.99989 (Simulation time: 0 hr 1 min 16 sec) 
Heartbeat CPU 0 instructions: 30000003 cycles: 7500144 heartbeat IPC: 4 cumulative IPC: 3.99993 (Simulation time: 0 hr 1 min 56 sec) 
Heartbeat CPU 0 instructions: 40000000 cycles: 10000171 heartbeat IPC: 3.99996 cumulative IPC: 3.99994 (Simulation time: 0 hr 2 min 36 sec) 
Heartbeat CPU 0 instructions: 50000002 cycles: 12500246 heartbeat IPC: 3.99989 cumulative IPC: 3.99993 (Simulation time: 0 hr 3 min 16 sec) 
Warmup finished CPU 0 instructions: 50000002 cycles: 12500247 cumulative IPC: 3.99993 (Simulation time: 0 hr 3 min 16 sec) 

Warmup complete CPU 0 instructions: 50000002 cycles: 12500247 (Simulation time: 0 hr 3 min 16 sec) 

Heartbeat CPU 0 instructions: 60000002 cycles: 32258677 heartbeat IPC: 0.506114 cumulative IPC: 0.506114 (Simulation time: 0 hr 4 min 27 sec) 
Heartbeat CPU 0 instructions: 70000000 cycles: 53002259 heartbeat IPC: 0.482077 cumulative IPC: 0.493803 (Simulation time: 0 hr 5 min 41 sec) 
Heartbeat CPU 0 instructions: 80000000 cycles: 73041026 heartbeat IPC: 0.499033 cumulative IPC: 0.495534 (Simulation time: 0 hr 6 min 53 sec) 
Heartbeat CPU 0 instructions: 90000000 cycles: 93034788 heartbeat IPC: 0.500156 cumulative IPC: 0.496682 (Simulation time: 0 hr 8 min 6 sec) 
Heartbeat CPU 0 instructions: 100000002 cycles: 113135532 heartbeat IPC: 0.497495 cumulative IPC: 0.496844 (Simulation time: 0 hr 9 min 18 sec) 
*** Reached end of trace: /gpfs/projects/bsc18/MN4/bsc18/romol/ChampSim/traces/qualcomm_srv/srv32_ap.champsimtrace.xz
Heartbeat CPU 0 instructions: 110000001 cycles: 133702021 heartbeat IPC: 0.486228 cumulative IPC: 0.495043 (Simulation time: 0 hr 10 min 32 sec) 
Heartbeat CPU 0 instructions: 120000003 cycles: 153616002 heartbeat IPC: 0.50216 cumulative IPC: 0.496047 (Simulation time: 0 hr 11 min 44 sec) 
Heartbeat CPU 0 instructions: 130000001 cycles: 173528419 heartbeat IPC: 0.5022 cumulative IPC: 0.496808 (Simulation time: 0 hr 12 min 56 sec) 
Heartbeat CPU 0 instructions: 140000002 cycles: 193725034 heartbeat IPC: 0.495133 cumulative IPC: 0.496621 (Simulation time: 0 hr 14 min 9 sec) 
Heartbeat CPU 0 instructions: 150000002 cycles: 214578232 heartbeat IPC: 0.479543 cumulative IPC: 0.494859 (Simulation time: 0 hr 15 min 21 sec) 
Simulation finished CPU 0 instructions: 100000000 cycles: 202077986 cumulative IPC: 0.494859 (Simulation time: 0 hr 15 min 21 sec) 

Simulation complete CPU 0 instructions: 100000000 cycles: 202077986 (Simulation time: 0 hr 15 min 21 sec) 


ChampSim completed all CPUs

Saving instructions large page distribution to /home/bsc/bsc018186/scratch/itp_asplos25_AE/dump/srv32_ap.pdst...
Saving data large page distribution to /home/bsc/bsc018186/scratch/itp_asplos25_AE/dump/srv32_ap.pdst...
=== Simulation ===
CPU 0 runs /gpfs/projects/bsc18/MN4/bsc18/romol/ChampSim/traces/qualcomm_srv/srv32_ap.champsimtrace.xz

Region of Interest Statistics

CPU 0 cumulative IPC: 0.494859 instructions: 100000000 cycles: 202077986
CPU 0 Branch Prediction Accuracy: 80.4054% MPKI: 35.4364 Average ROB Occupancy at Mispredict: 11.3195
Branch type MPKI
BRANCH_DIRECT_JUMP: 1.29137
BRANCH_INDIRECT: 17.8648
BRANCH_CONDITIONAL: 11.4624
BRANCH_DIRECT_CALL: 2.42608
BRANCH_INDIRECT_CALL: 0.687941
BRANCH_RETURN: 1.70385

Instructions large pages: 0
Instructions small pages: 1160
Large page distribution for instructions: 0%

Data large pages: 0
Data small pages: 5066
Large page distribution for data: 0%

cpu0_L1I TOTAL       ACCESS:   35371960  HIT:   27526852  MISS:    7845108  iACCESS:   35371960  iHIT:   27526852  iMISS:    7845108  dACCESS:          0  dHIT:          0  dMISS:          0  itACCESS:          0  itHIT:          0  itMISS:          0  dtACCESS:          0  dtHIT:          0  dtMISS:          0
cpu0_L1I LOAD         ACCESS:   10186340  HIT:    8026903  MISS:    2159437  iACCESS:   10186340  iHIT:    8026903  iMISS:    2159437  dACCESS:          0  dHIT:          0  dMISS:          0  itACCESS:          0  itHIT:          0  itMISS:          0  dtACCESS:          0  dtHIT:          0  dtMISS:          0
cpu0_L1I RFO          ACCESS:          0  HIT:          0  MISS:          0  iACCESS:          0  iHIT:          0  iMISS:          0  dACCESS:          0  dHIT:          0  dMISS:          0  itACCESS:          0  itHIT:          0  itMISS:          0  dtACCESS:          0  dtHIT:          0  dtMISS:          0
cpu0_L1I PREFETCH     ACCESS:   25185620  HIT:   19499949  MISS:    5685671  iACCESS:   25185620  iHIT:   19499949  iMISS:    5685671  dACCESS:          0  dHIT:          0  dMISS:          0  itACCESS:          0  itHIT:          0  itMISS:          0  dtACCESS:          0  dtHIT:          0  dtMISS:          0
cpu0_L1I WRITE        ACCESS:          0  HIT:          0  MISS:          0  iACCESS:          0  iHIT:          0  iMISS:          0  dACCESS:          0  dHIT:          0  dMISS:          0  itACCESS:          0  itHIT:          0  itMISS:          0  dtACCESS:          0  dtHIT:          0  dtMISS:          0
cpu0_L1I TRANSLATION  ACCESS:          0  HIT:          0  MISS:          0  iACCESS:          0  iHIT:          0  iMISS:          0  dACCESS:          0  dHIT:          0  dMISS:          0  itACCESS:          0  itHIT:          0  itMISS:          0  dtACCESS:          0  dtHIT:          0  dtMISS:          0
cpu0_L1I PREFETCH  REQUESTED:   27567777  ISSUED:   27567776  CROSSED:          0  USEFUL:    1963478  USELESS:     654192
cpu0_L1I AVERAGE iMISS LATENCY: 19.4829 cycles
cpu0_L1I AVERAGE dMISS LATENCY: 0 cycles
cpu0_L1I AVERAGE itMISS LATENCY: 0 cycles
cpu0_L1I AVERAGE dtMISS LATENCY: 0 cycles
cpu0_L1I PAGE CROSSINGS (TLB HIT):         0 
cpu0_L1I PAGE CROSSINGS (TLB MISS):         0 
cpu0_L1I AVERAGE MISS LATENCY: 19.4829 cycles
cpu0_ITLB TOTAL       ACCESS:   29836498  HIT:   27891038  MISS:    1945460  iACCESS:   29836498  iHIT:   27891038  iMISS:    1945460  dACCESS:          0  dHIT:          0  dMISS:          0  itACCESS:          0  itHIT:          0  itMISS:          0  dtACCESS:          0  dtHIT:          0  dtMISS:          0
cpu0_ITLB LOAD         ACCESS:   29836498  HIT:   27891038  MISS:    1945460  iACCESS:   29836498  iHIT:   27891038  iMISS:    1945460  dACCESS:          0  dHIT:          0  dMISS:          0  itACCESS:          0  itHIT:          0  itMISS:          0  dtACCESS:          0  dtHIT:          0  dtMISS:          0
cpu0_ITLB RFO          ACCESS:          0  HIT:          0  MISS:          0  iACCESS:          0  iHIT:          0  iMISS:          0  dACCESS:          0  dHIT:          0  dMISS:          0  itACCESS:          0  itHIT:          0  itMISS:          0  dtACCESS:          0  dtHIT:          0  dtMISS:          0
cpu0_ITLB PREFETCH     ACCESS:          0  HIT:          0  MISS:          0  iACCESS:          0  iHIT:          0  iMISS:          0  dACCESS:          0  dHIT:          0  dMISS:          0  itACCESS:          0  itHIT:          0  itMISS:          0  dtACCESS:          0  dtHIT:          0  dtMISS:          0
cpu0_ITLB WRITE        ACCESS:          0  HIT:          0  MISS:          0  iACCESS:          0  iHIT:          0  iMISS:          0  dACCESS:          0  dHIT:          0  dMISS:          0  itACCESS:          0  itHIT:          0  itMISS:          0  dtACCESS:          0  dtHIT:          0  dtMISS:          0
cpu0_ITLB TRANSLATION  ACCESS:          0  HIT:          0  MISS:          0  iACCESS:          0  iHIT:          0  iMISS:          0  dACCESS:          0  dHIT:          0  dMISS:          0  itACCESS:          0  itHIT:          0  itMISS:          0  dtACCESS:          0  dtHIT:          0  dtMISS:          0
cpu0_ITLB PREFETCH  REQUESTED:          0  ISSUED:          0  CROSSED:          0  USEFUL:     328737  USELESS:      62250
cpu0_ITLB AVERAGE iMISS LATENCY: 3.55137 cycles
cpu0_ITLB AVERAGE dMISS LATENCY: 0 cycles
cpu0_ITLB AVERAGE itMISS LATENCY: 0 cycles
cpu0_ITLB AVERAGE dtMISS LATENCY: 0 cycles
cpu0_ITLB PAGE CROSSINGS (TLB HIT):         0 
cpu0_ITLB PAGE CROSSINGS (TLB MISS):         0 
cpu0_ITLB AVERAGE MISS LATENCY: 3.55137 cycles
cpu0_DTLB TOTAL       ACCESS:   28078634  HIT:   26297459  MISS:    1781175  iACCESS:          0  iHIT:          0  iMISS:          0  dACCESS:   28078634  dHIT:   26297459  dMISS:    1781175  itACCESS:          0  itHIT:          0  itMISS:          0  dtACCESS:          0  dtHIT:          0  dtMISS:          0
cpu0_DTLB LOAD         ACCESS:   28078634  HIT:   26297459  MISS:    1781175  iACCESS:          0  iHIT:          0  iMISS:          0  dACCESS:   28078634  dHIT:   26297459  dMISS:    1781175  itACCESS:          0  itHIT:          0  itMISS:          0  dtACCESS:          0  dtHIT:          0  dtMISS:          0
cpu0_DTLB RFO          ACCESS:          0  HIT:          0  MISS:          0  iACCESS:          0  iHIT:          0  iMISS:          0  dACCESS:          0  dHIT:          0  dMISS:          0  itACCESS:          0  itHIT:          0  itMISS:          0  dtACCESS:          0  dtHIT:          0  dtMISS:          0
cpu0_DTLB PREFETCH     ACCESS:          0  HIT:          0  MISS:          0  iACCESS:          0  iHIT:          0  iMISS:          0  dACCESS:          0  dHIT:          0  dMISS:          0  itACCESS:          0  itHIT:          0  itMISS:          0  dtACCESS:          0  dtHIT:          0  dtMISS:          0
cpu0_DTLB WRITE        ACCESS:          0  HIT:          0  MISS:          0  iACCESS:          0  iHIT:          0  iMISS:          0  dACCESS:          0  dHIT:          0  dMISS:          0  itACCESS:          0  itHIT:          0  itMISS:          0  dtACCESS:          0  dtHIT:          0  dtMISS:          0
cpu0_DTLB TRANSLATION  ACCESS:          0  HIT:          0  MISS:          0  iACCESS:          0  iHIT:          0  iMISS:          0  dACCESS:          0  dHIT:          0  dMISS:          0  itACCESS:          0  itHIT:          0  itMISS:          0  dtACCESS:          0  dtHIT:          0  dtMISS:          0
cpu0_DTLB PREFETCH  REQUESTED:          0  ISSUED:          0  CROSSED:          0  USEFUL:          0  USELESS:          0
cpu0_DTLB AVERAGE iMISS LATENCY: 0 cycles
cpu0_DTLB AVERAGE dMISS LATENCY: 25.6084 cycles
cpu0_DTLB AVERAGE itMISS LATENCY: 0 cycles
cpu0_DTLB AVERAGE dtMISS LATENCY: 0 cycles
cpu0_DTLB PAGE CROSSINGS (TLB HIT):         0 
cpu0_DTLB PAGE CROSSINGS (TLB MISS):         0 
cpu0_DTLB AVERAGE MISS LATENCY: 25.6084 cycles
cpu0_STLB TOTAL       ACCESS:    1501317  HIT:    1292992  MISS:     208325  iACCESS:     391001  iHIT:     369004  iMISS:      21997  dACCESS:    1110316  dHIT:     923988  dMISS:     186328  itACCESS:          0  itHIT:          0  itMISS:          0  dtACCESS:          0  dtHIT:          0  dtMISS:          0
cpu0_STLB LOAD         ACCESS:    1501317  HIT:    1292992  MISS:     208325  iACCESS:     391001  iHIT:     369004  iMISS:      21997  dACCESS:    1110316  dHIT:     923988  dMISS:     186328  itACCESS:          0  itHIT:          0  itMISS:          0  dtACCESS:          0  dtHIT:          0  dtMISS:          0
cpu0_STLB RFO          ACCESS:          0  HIT:          0  MISS:          0  iACCESS:          0  iHIT:          0  iMISS:          0  dACCESS:          0  dHIT:          0  dMISS:          0  itACCESS:          0  itHIT:          0  itMISS:          0  dtACCESS:          0  dtHIT:          0  dtMISS:          0
cpu0_STLB PREFETCH     ACCESS:          0  HIT:          0  MISS:          0  iACCESS:          0  iHIT:          0  iMISS:          0  dACCESS:          0  dHIT:          0  dMISS:          0  itACCESS:          0  itHIT:          0  itMISS:          0  dtACCESS:          0  dtHIT:          0  dtMISS:          0
cpu0_STLB WRITE        ACCESS:          0  HIT:          0  MISS:          0  iACCESS:          0  iHIT:          0  iMISS:          0  dACCESS:          0  dHIT:          0  dMISS:          0  itACCESS:          0  itHIT:          0  itMISS:          0  dtACCESS:          0  dtHIT:          0  dtMISS:          0
cpu0_STLB TRANSLATION  ACCESS:          0  HIT:          0  MISS:          0  iACCESS:          0  iHIT:          0  iMISS:          0  dACCESS:          0  dHIT:          0  dMISS:          0  itACCESS:          0  itHIT:          0  itMISS:          0  dtACCESS:          0  dtHIT:          0  dtMISS:          0
cpu0_STLB PREFETCH  REQUESTED:          0  ISSUED:          0  CROSSED:          0  USEFUL:          0  USELESS:          0
cpu0_STLB AVERAGE iMISS LATENCY: 18.5216 cycles
cpu0_STLB AVERAGE dMISS LATENCY: 175.985 cycles
cpu0_STLB AVERAGE itMISS LATENCY: 0 cycles
cpu0_STLB AVERAGE dtMISS LATENCY: 0 cycles
cpu0_STLB PAGE CROSSINGS (TLB HIT):         0 
cpu0_STLB PAGE CROSSINGS (TLB MISS):         0 
cpu0_STLB AVERAGE MISS LATENCY: 194.507 cycles
cpu0_L1D TOTAL       ACCESS:   42685829  HIT:   38506814  MISS:    4179015  iACCESS:          0  iHIT:          0  iMISS:          0  dACCESS:   42407379  dHIT:   38489553  dMISS:    3917826  itACCESS:      25501  itHIT:       2000  itMISS:      23501  dtACCESS:     252949  dtHIT:      15261  dtMISS:     237688
cpu0_L1D LOAD         ACCESS:   19475974  HIT:   17689114  MISS:    1786860  iACCESS:          0  iHIT:          0  iMISS:          0  dACCESS:   19475974  dHIT:   17689114  dMISS:    1786860  itACCESS:          0  itHIT:          0  itMISS:          0  dtACCESS:          0  dtHIT:          0  dtMISS:          0
cpu0_L1D RFO          ACCESS:          0  HIT:          0  MISS:          0  iACCESS:          0  iHIT:          0  iMISS:          0  dACCESS:          0  dHIT:          0  dMISS:          0  itACCESS:          0  itHIT:          0  itMISS:          0  dtACCESS:          0  dtHIT:          0  dtMISS:          0
cpu0_L1D PREFETCH     ACCESS:   12723836  HIT:   11082885  MISS:    1640951  iACCESS:          0  iHIT:          0  iMISS:          0  dACCESS:   12723836  dHIT:   11082885  dMISS:    1640951  itACCESS:          0  itHIT:          0  itMISS:          0  dtACCESS:          0  dtHIT:          0  dtMISS:          0
cpu0_L1D WRITE        ACCESS:   10207569  HIT:    9717554  MISS:     490015  iACCESS:          0  iHIT:          0  iMISS:          0  dACCESS:   10207569  dHIT:    9717554  dMISS:     490015  itACCESS:          0  itHIT:          0  itMISS:          0  dtACCESS:          0  dtHIT:          0  dtMISS:          0
cpu0_L1D TRANSLATION  ACCESS:     278450  HIT:      17261  MISS:     261189  iACCESS:          0  iHIT:          0  iMISS:          0  dACCESS:          0  dHIT:          0  dMISS:          0  itACCESS:      25501  itHIT:       2000  itMISS:      23501  dtACCESS:     252949  dtHIT:      15261  dtMISS:     237688
cpu0_L1D PREFETCH  REQUESTED:   19475974  ISSUED:   17229851  CROSSED:          0  USEFUL:     308435  USELESS:     702506
cpu0_L1D AVERAGE iMISS LATENCY: 0 cycles
cpu0_L1D AVERAGE dMISS LATENCY: 39.9894 cycles
cpu0_L1D AVERAGE itMISS LATENCY: 0.866118 cycles
cpu0_L1D AVERAGE dtMISS LATENCY: 8.16559 cycles
cpu0_L1D PAGE CROSSINGS (TLB HIT):         0 
cpu0_L1D PAGE CROSSINGS (TLB MISS):         0 
cpu0_L1D AVERAGE MISS LATENCY: 49.0211 cycles
cpu0_L2C TOTAL       ACCESS:    7236743  HIT:    3747418  MISS:    3489325  iACCESS:    3350854  iHIT:    2045191  iMISS:    1305663  dACCESS:    3628394  dHIT:    1661980  dMISS:    1966414  itACCESS:      23501  itHIT:       3375  itMISS:      20126  dtACCESS:     233994  dtHIT:      36872  dtMISS:     197122
cpu0_L2C LOAD         ACCESS:    1722760  HIT:     928195  MISS:     794565  iACCESS:     771087  iHIT:     499203  iMISS:     271884  dACCESS:     951673  dHIT:     428992  dMISS:     522681  itACCESS:          0  itHIT:          0  itMISS:          0  dtACCESS:          0  dtHIT:          0  dtMISS:          0
cpu0_L2C RFO          ACCESS:     164807  HIT:      64180  MISS:     100627  iACCESS:          0  iHIT:          0  iMISS:          0  dACCESS:     164807  dHIT:      64180  dMISS:     100627  itACCESS:          0  itHIT:          0  itMISS:          0  dtACCESS:          0  dtHIT:          0  dtMISS:          0
cpu0_L2C PREFETCH     ACCESS:    4816234  HIT:    2440370  MISS:    2375864  iACCESS:    2579767  iHIT:    1545988  iMISS:    1033779  dACCESS:    2236467  dHIT:     894382  dMISS:    1342085  itACCESS:          0  itHIT:          0  itMISS:          0  dtACCESS:          0  dtHIT:          0  dtMISS:          0
cpu0_L2C WRITE        ACCESS:     275447  HIT:     274426  MISS:       1021  iACCESS:          0  iHIT:          0  iMISS:          0  dACCESS:     275447  dHIT:     274426  dMISS:       1021  itACCESS:          0  itHIT:          0  itMISS:          0  dtACCESS:          0  dtHIT:          0  dtMISS:          0
cpu0_L2C TRANSLATION  ACCESS:     257495  HIT:      40247  MISS:     217248  iACCESS:          0  iHIT:          0  iMISS:          0  dACCESS:          0  dHIT:          0  dMISS:          0  itACCESS:      23501  itHIT:       3375  itMISS:      20126  dtACCESS:     233994  dtHIT:      36872  dtMISS:     197122
cpu0_L2C PREFETCH  REQUESTED:    1484057  ISSUED:    1484004  CROSSED:          0  USEFUL:     349282  USELESS:     291588
cpu0_L2C AVERAGE iMISS LATENCY: 35.4264 cycles
cpu0_L2C AVERAGE dMISS LATENCY: 61.635 cycles
cpu0_L2C AVERAGE itMISS LATENCY: 0.97068 cycles
cpu0_L2C AVERAGE dtMISS LATENCY: 9.11537 cycles
cpu0_L2C PAGE CROSSINGS (TLB HIT):         0 
cpu0_L2C PAGE CROSSINGS (TLB MISS):         0 
cpu0_L2C AVERAGE MISS LATENCY: 107.148 cycles
LLC TOTAL       ACCESS:    3449069  HIT:    1536492  MISS:    1912577  iACCESS:    1227969  iHIT:     564814  iMISS:     663155  dACCESS:    2003852  dHIT:     920543  dMISS:    1083309  itACCESS:      20126  itHIT:       3200  itMISS:      16926  dtACCESS:     197122  dtHIT:      47935  dtMISS:     149187
LLC LOAD         ACCESS:     788027  HIT:     372004  MISS:     416023  iACCESS:     270553  iHIT:     130261  iMISS:     140292  dACCESS:     517474  dHIT:     241743  dMISS:     275731  itACCESS:          0  itHIT:          0  itMISS:          0  dtACCESS:          0  dtHIT:          0  dtMISS:          0
LLC RFO          ACCESS:     100619  HIT:      39096  MISS:      61523  iACCESS:          0  iHIT:          0  iMISS:          0  dACCESS:     100619  dHIT:      39096  dMISS:      61523  itACCESS:          0  itHIT:          0  itMISS:          0  dtACCESS:          0  dtHIT:          0  dtMISS:          0
LLC PREFETCH     ACCESS:    2198019  HIT:     937708  MISS:    1260311  iACCESS:     957416  iHIT:     434553  iMISS:     522863  dACCESS:    1240603  dHIT:     503155  dMISS:     737448  itACCESS:          0  itHIT:          0  itMISS:          0  dtACCESS:          0  dtHIT:          0  dtMISS:          0
LLC WRITE        ACCESS:     145156  HIT:     136549  MISS:       8607  iACCESS:          0  iHIT:          0  iMISS:          0  dACCESS:     145156  dHIT:     136549  dMISS:       8607  itACCESS:          0  itHIT:          0  itMISS:          0  dtACCESS:          0  dtHIT:          0  dtMISS:          0
LLC TRANSLATION  ACCESS:     217248  HIT:      51135  MISS:     166113  iACCESS:          0  iHIT:          0  iMISS:          0  dACCESS:          0  dHIT:          0  dMISS:          0  itACCESS:      20126  itHIT:       3200  itMISS:      16926  dtACCESS:     197122  dtHIT:      47935  dtMISS:     149187
LLC PREFETCH  REQUESTED:          0  ISSUED:          0  CROSSED:          0  USEFUL:          0  USELESS:          0
LLC AVERAGE iMISS LATENCY: 52.0575 cycles
LLC AVERAGE dMISS LATENCY: 94.5144 cycles
LLC AVERAGE itMISS LATENCY: 1.56301 cycles
LLC AVERAGE dtMISS LATENCY: 14.6021 cycles
LLC PAGE CROSSINGS (TLB HIT):         0 
LLC PAGE CROSSINGS (TLB MISS):         0 
LLC AVERAGE MISS LATENCY: 162.737 cycles

PageTableWalker TOTAL       ACCESS:     100623  
PageTableWalker AVERAGE LATENCY: 5.34638 cycles
PageTableWalker TOTAL LATENCY: 537968 cycles

DRAM Statistics
Channel 0
 RQ ROW_BUFFER_HIT:     508522
  ROW_BUFFER_MISS:    1383320
 AVG DBUS CONGESTED CYCLE:     3.6397
 WQ ROW_BUFFER_HIT:      38115
  ROW_BUFFER_MISS:      25921  FULL:          0

