last_page:0x200000000000000
VMEM_RES_CAP:0x100000
PAGE_SIZE:4096
LOG2_PAGE_SIZE:12
LOG2_PAGE_TABLE_SIZE:9
page_table_levels:5
WARNING: physical memory size is smaller than virtual memory size
FDiP enabled with aggresivity 16

*** ChampSim Multicore Out-of-Order Simulator ***

Warmup Instructions: 50000000
Simulation Instructions: 100000000
Number of CPUs: 1
Small page size: 4096
Large page size: 2097152

CPU 0 Bimodal branch predictor
Basic BTB sets: 1024 ways: 8 indirect buffer size: 4096 RAS size: 64
Instruction page size distrubution: 0
Loading instruction page size distribution from /home/bsc/bsc018186/scratch/itp_asplos25_AE/dump/srv326_ap.pdst
Data page size distrubution: 0
Loading data page size distribution from /home/bsc/bsc018186/scratch/itp_asplos25_AE/dump/srv326_ap.pdst
cpu0_L2C IP-based stride prefetcher
cpu0_L1D next line prefetcher
cpu0_STLB using iTP with max lru@8
cpu0_STLB using iTP with instr@0 and data@2
Init sat counter with 3 bits (max:50).
cpu0_L1I next line prefetcher
Off-chip DRAM Size: 4 GiB Channels: 1 Width: 64-bit Data Rate: 3200 MT/s
Heartbeat CPU 0 instructions: 10000003 cycles: 2500262 heartbeat IPC: 3.99959 cumulative IPC: 3.99959 (Simulation time: 0 hr 0 min 37 sec) 
Heartbeat CPU 0 instructions: 20000003 cycles: 5000414 heartbeat IPC: 3.99976 cumulative IPC: 3.99967 (Simulation time: 0 hr 1 min 16 sec) 
Heartbeat CPU 0 instructions: 30000003 cycles: 7500475 heartbeat IPC: 3.99991 cumulative IPC: 3.99975 (Simulation time: 0 hr 1 min 56 sec) 
Heartbeat CPU 0 instructions: 40000002 cycles: 10000504 heartbeat IPC: 3.99996 cumulative IPC: 3.9998 (Simulation time: 0 hr 2 min 36 sec) 
Heartbeat CPU 0 instructions: 50000003 cycles: 12500647 heartbeat IPC: 3.99978 cumulative IPC: 3.9998 (Simulation time: 0 hr 3 min 16 sec) 
Warmup finished CPU 0 instructions: 50000003 cycles: 12500648 cumulative IPC: 3.9998 (Simulation time: 0 hr 3 min 16 sec) 

Warmup complete CPU 0 instructions: 50000003 cycles: 12500648 (Simulation time: 0 hr 3 min 16 sec) 

Heartbeat CPU 0 instructions: 60000000 cycles: 27645047 heartbeat IPC: 0.66031 cumulative IPC: 0.66031 (Simulation time: 0 hr 4 min 20 sec) 
Heartbeat CPU 0 instructions: 70000003 cycles: 43128047 heartbeat IPC: 0.64587 cumulative IPC: 0.653011 (Simulation time: 0 hr 5 min 25 sec) 
Heartbeat CPU 0 instructions: 80000001 cycles: 58705326 heartbeat IPC: 0.641961 cumulative IPC: 0.649285 (Simulation time: 0 hr 6 min 31 sec) 
Heartbeat CPU 0 instructions: 90000001 cycles: 74875732 heartbeat IPC: 0.618414 cumulative IPC: 0.641282 (Simulation time: 0 hr 7 min 36 sec) 
Heartbeat CPU 0 instructions: 100000004 cycles: 90133935 heartbeat IPC: 0.655386 cumulative IPC: 0.644054 (Simulation time: 0 hr 8 min 41 sec) 
*** Reached end of trace: /gpfs/projects/bsc18/MN4/bsc18/romol/ChampSim/traces/qualcomm_srv/srv326_ap.champsimtrace.xz
Heartbeat CPU 0 instructions: 110000001 cycles: 105013280 heartbeat IPC: 0.672073 cumulative IPC: 0.648561 (Simulation time: 0 hr 9 min 45 sec) 
Heartbeat CPU 0 instructions: 120000000 cycles: 119727711 heartbeat IPC: 0.679605 cumulative IPC: 0.652821 (Simulation time: 0 hr 10 min 48 sec) 
Heartbeat CPU 0 instructions: 130000000 cycles: 134280797 heartbeat IPC: 0.68714 cumulative IPC: 0.656922 (Simulation time: 0 hr 11 min 52 sec) 
Heartbeat CPU 0 instructions: 140000001 cycles: 149192701 heartbeat IPC: 0.670606 cumulative IPC: 0.658415 (Simulation time: 0 hr 12 min 56 sec) 
Heartbeat CPU 0 instructions: 150000000 cycles: 164008674 heartbeat IPC: 0.674948 cumulative IPC: 0.660032 (Simulation time: 0 hr 13 min 59 sec) 
Simulation finished CPU 0 instructions: 100000000 cycles: 151508031 cumulative IPC: 0.660032 (Simulation time: 0 hr 13 min 59 sec) 

Simulation complete CPU 0 instructions: 100000000 cycles: 151508031 (Simulation time: 0 hr 13 min 59 sec) 


ChampSim completed all CPUs

Saving instructions large page distribution to /home/bsc/bsc018186/scratch/itp_asplos25_AE/dump/srv326_ap.pdst...
Saving data large page distribution to /home/bsc/bsc018186/scratch/itp_asplos25_AE/dump/srv326_ap.pdst...
=== Simulation ===
CPU 0 runs /gpfs/projects/bsc18/MN4/bsc18/romol/ChampSim/traces/qualcomm_srv/srv326_ap.champsimtrace.xz

Region of Interest Statistics

CPU 0 cumulative IPC: 0.660032 instructions: 100000000 cycles: 151508031
CPU 0 Branch Prediction Accuracy: 83.4045% MPKI: 29.702 Average ROB Occupancy at Mispredict: 13.1124
Branch type MPKI
BRANCH_DIRECT_JUMP: 1.01952
BRANCH_INDIRECT: 15.3612
BRANCH_CONDITIONAL: 9.64146
BRANCH_DIRECT_CALL: 1.83113
BRANCH_INDIRECT_CALL: 0.515361
BRANCH_RETURN: 1.33339

Instructions large pages: 0
Instructions small pages: 1123
Large page distribution for instructions: 0%

Data large pages: 0
Data small pages: 10359
Large page distribution for data: 0%

cpu0_L1I TOTAL       ACCESS:   34728415  HIT:   26922666  MISS:    7805749  iACCESS:   34728415  iHIT:   26922666  iMISS:    7805749  dACCESS:          0  dHIT:          0  dMISS:          0  itACCESS:          0  itHIT:          0  itMISS:          0  dtACCESS:          0  dtHIT:          0  dtMISS:          0
cpu0_L1I LOAD         ACCESS:   10195445  HIT:    7994254  MISS:    2201191  iACCESS:   10195445  iHIT:    7994254  iMISS:    2201191  dACCESS:          0  dHIT:          0  dMISS:          0  itACCESS:          0  itHIT:          0  itMISS:          0  dtACCESS:          0  dtHIT:          0  dtMISS:          0
cpu0_L1I RFO          ACCESS:          0  HIT:          0  MISS:          0  iACCESS:          0  iHIT:          0  iMISS:          0  dACCESS:          0  dHIT:          0  dMISS:          0  itACCESS:          0  itHIT:          0  itMISS:          0  dtACCESS:          0  dtHIT:          0  dtMISS:          0
cpu0_L1I PREFETCH     ACCESS:   24532970  HIT:   18928412  MISS:    5604558  iACCESS:   24532970  iHIT:   18928412  iMISS:    5604558  dACCESS:          0  dHIT:          0  dMISS:          0  itACCESS:          0  itHIT:          0  itMISS:          0  dtACCESS:          0  dtHIT:          0  dtMISS:          0
cpu0_L1I WRITE        ACCESS:          0  HIT:          0  MISS:          0  iACCESS:          0  iHIT:          0  iMISS:          0  dACCESS:          0  dHIT:          0  dMISS:          0  itACCESS:          0  itHIT:          0  itMISS:          0  dtACCESS:          0  dtHIT:          0  dtMISS:          0
cpu0_L1I TRANSLATION  ACCESS:          0  HIT:          0  MISS:          0  iACCESS:          0  iHIT:          0  iMISS:          0  dACCESS:          0  dHIT:          0  dMISS:          0  itACCESS:          0  itHIT:          0  itMISS:          0  dtACCESS:          0  dtHIT:          0  dtMISS:          0
cpu0_L1I PREFETCH  REQUESTED:   27108133  ISSUED:   27108133  CROSSED:          0  USEFUL:    1892428  USELESS:     630611
cpu0_L1I AVERAGE iMISS LATENCY: 13.089 cycles
cpu0_L1I AVERAGE dMISS LATENCY: 0 cycles
cpu0_L1I AVERAGE itMISS LATENCY: 0 cycles
cpu0_L1I AVERAGE dtMISS LATENCY: 0 cycles
cpu0_L1I PAGE CROSSINGS (TLB HIT):         0 
cpu0_L1I PAGE CROSSINGS (TLB MISS):         0 
cpu0_L1I AVERAGE MISS LATENCY: 13.089 cycles
cpu0_ITLB TOTAL       ACCESS:   29017876  HIT:   27035986  MISS:    1981890  iACCESS:   29017876  iHIT:   27035986  iMISS:    1981890  dACCESS:          0  dHIT:          0  dMISS:          0  itACCESS:          0  itHIT:          0  itMISS:          0  dtACCESS:          0  dtHIT:          0  dtMISS:          0
cpu0_ITLB LOAD         ACCESS:   29017876  HIT:   27035986  MISS:    1981890  iACCESS:   29017876  iHIT:   27035986  iMISS:    1981890  dACCESS:          0  dHIT:          0  dMISS:          0  itACCESS:          0  itHIT:          0  itMISS:          0  dtACCESS:          0  dtHIT:          0  dtMISS:          0
cpu0_ITLB RFO          ACCESS:          0  HIT:          0  MISS:          0  iACCESS:          0  iHIT:          0  iMISS:          0  dACCESS:          0  dHIT:          0  dMISS:          0  itACCESS:          0  itHIT:          0  itMISS:          0  dtACCESS:          0  dtHIT:          0  dtMISS:          0
cpu0_ITLB PREFETCH     ACCESS:          0  HIT:          0  MISS:          0  iACCESS:          0  iHIT:          0  iMISS:          0  dACCESS:          0  dHIT:          0  dMISS:          0  itACCESS:          0  itHIT:          0  itMISS:          0  dtACCESS:          0  dtHIT:          0  dtMISS:          0
cpu0_ITLB WRITE        ACCESS:          0  HIT:          0  MISS:          0  iACCESS:          0  iHIT:          0  iMISS:          0  dACCESS:          0  dHIT:          0  dMISS:          0  itACCESS:          0  itHIT:          0  itMISS:          0  dtACCESS:          0  dtHIT:          0  dtMISS:          0
cpu0_ITLB TRANSLATION  ACCESS:          0  HIT:          0  MISS:          0  iACCESS:          0  iHIT:          0  iMISS:          0  dACCESS:          0  dHIT:          0  dMISS:          0  itACCESS:          0  itHIT:          0  itMISS:          0  dtACCESS:          0  dtHIT:          0  dtMISS:          0
cpu0_ITLB PREFETCH  REQUESTED:          0  ISSUED:          0  CROSSED:          0  USEFUL:     321786  USELESS:      67209
cpu0_ITLB AVERAGE iMISS LATENCY: 2.21631 cycles
cpu0_ITLB AVERAGE dMISS LATENCY: 0 cycles
cpu0_ITLB AVERAGE itMISS LATENCY: 0 cycles
cpu0_ITLB AVERAGE dtMISS LATENCY: 0 cycles
cpu0_ITLB PAGE CROSSINGS (TLB HIT):         0 
cpu0_ITLB PAGE CROSSINGS (TLB MISS):         0 
cpu0_ITLB AVERAGE MISS LATENCY: 2.21631 cycles
cpu0_DTLB TOTAL       ACCESS:   27682267  HIT:   25634189  MISS:    2048078  iACCESS:          0  iHIT:          0  iMISS:          0  dACCESS:   27682267  dHIT:   25634189  dMISS:    2048078  itACCESS:          0  itHIT:          0  itMISS:          0  dtACCESS:          0  dtHIT:          0  dtMISS:          0
cpu0_DTLB LOAD         ACCESS:   27682267  HIT:   25634189  MISS:    2048078  iACCESS:          0  iHIT:          0  iMISS:          0  dACCESS:   27682267  dHIT:   25634189  dMISS:    2048078  itACCESS:          0  itHIT:          0  itMISS:          0  dtACCESS:          0  dtHIT:          0  dtMISS:          0
cpu0_DTLB RFO          ACCESS:          0  HIT:          0  MISS:          0  iACCESS:          0  iHIT:          0  iMISS:          0  dACCESS:          0  dHIT:          0  dMISS:          0  itACCESS:          0  itHIT:          0  itMISS:          0  dtACCESS:          0  dtHIT:          0  dtMISS:          0
cpu0_DTLB PREFETCH     ACCESS:          0  HIT:          0  MISS:          0  iACCESS:          0  iHIT:          0  iMISS:          0  dACCESS:          0  dHIT:          0  dMISS:          0  itACCESS:          0  itHIT:          0  itMISS:          0  dtACCESS:          0  dtHIT:          0  dtMISS:          0
cpu0_DTLB WRITE        ACCESS:          0  HIT:          0  MISS:          0  iACCESS:          0  iHIT:          0  iMISS:          0  dACCESS:          0  dHIT:          0  dMISS:          0  itACCESS:          0  itHIT:          0  itMISS:          0  dtACCESS:          0  dtHIT:          0  dtMISS:          0
cpu0_DTLB TRANSLATION  ACCESS:          0  HIT:          0  MISS:          0  iACCESS:          0  iHIT:          0  iMISS:          0  dACCESS:          0  dHIT:          0  dMISS:          0  itACCESS:          0  itHIT:          0  itMISS:          0  dtACCESS:          0  dtHIT:          0  dtMISS:          0
cpu0_DTLB PREFETCH  REQUESTED:          0  ISSUED:          0  CROSSED:          0  USEFUL:          0  USELESS:          0
cpu0_DTLB AVERAGE iMISS LATENCY: 0 cycles
cpu0_DTLB AVERAGE dMISS LATENCY: 17.2201 cycles
cpu0_DTLB AVERAGE itMISS LATENCY: 0 cycles
cpu0_DTLB AVERAGE dtMISS LATENCY: 0 cycles
cpu0_DTLB PAGE CROSSINGS (TLB HIT):         0 
cpu0_DTLB PAGE CROSSINGS (TLB MISS):         0 
cpu0_DTLB AVERAGE MISS LATENCY: 17.2201 cycles
cpu0_STLB TOTAL       ACCESS:    1626323  HIT:    1478195  MISS:     148128  iACCESS:     388999  iHIT:     380241  iMISS:       8758  dACCESS:    1237324  dHIT:    1097954  dMISS:     139370  itACCESS:          0  itHIT:          0  itMISS:          0  dtACCESS:          0  dtHIT:          0  dtMISS:          0
cpu0_STLB LOAD         ACCESS:    1626323  HIT:    1478195  MISS:     148128  iACCESS:     388999  iHIT:     380241  iMISS:       8758  dACCESS:    1237324  dHIT:    1097954  dMISS:     139370  itACCESS:          0  itHIT:          0  itMISS:          0  dtACCESS:          0  dtHIT:          0  dtMISS:          0
cpu0_STLB RFO          ACCESS:          0  HIT:          0  MISS:          0  iACCESS:          0  iHIT:          0  iMISS:          0  dACCESS:          0  dHIT:          0  dMISS:          0  itACCESS:          0  itHIT:          0  itMISS:          0  dtACCESS:          0  dtHIT:          0  dtMISS:          0
cpu0_STLB PREFETCH     ACCESS:          0  HIT:          0  MISS:          0  iACCESS:          0  iHIT:          0  iMISS:          0  dACCESS:          0  dHIT:          0  dMISS:          0  itACCESS:          0  itHIT:          0  itMISS:          0  dtACCESS:          0  dtHIT:          0  dtMISS:          0
cpu0_STLB WRITE        ACCESS:          0  HIT:          0  MISS:          0  iACCESS:          0  iHIT:          0  iMISS:          0  dACCESS:          0  dHIT:          0  dMISS:          0  itACCESS:          0  itHIT:          0  itMISS:          0  dtACCESS:          0  dtHIT:          0  dtMISS:          0
cpu0_STLB TRANSLATION  ACCESS:          0  HIT:          0  MISS:          0  iACCESS:          0  iHIT:          0  iMISS:          0  dACCESS:          0  dHIT:          0  dMISS:          0  itACCESS:          0  itHIT:          0  itMISS:          0  dtACCESS:          0  dtHIT:          0  dtMISS:          0
cpu0_STLB PREFETCH  REQUESTED:          0  ISSUED:          0  CROSSED:          0  USEFUL:          0  USELESS:          0
cpu0_STLB AVERAGE iMISS LATENCY: 9.25459 cycles
cpu0_STLB AVERAGE dMISS LATENCY: 171.289 cycles
cpu0_STLB AVERAGE itMISS LATENCY: 0 cycles
cpu0_STLB AVERAGE dtMISS LATENCY: 0 cycles
cpu0_STLB PAGE CROSSINGS (TLB HIT):         0 
cpu0_STLB PAGE CROSSINGS (TLB MISS):         0 
cpu0_STLB AVERAGE MISS LATENCY: 180.543 cycles
cpu0_L1D TOTAL       ACCESS:   41463330  HIT:   37911668  MISS:    3551662  iACCESS:          0  iHIT:          0  iMISS:          0  dACCESS:   41243486  dHIT:   37897122  dMISS:    3346364  itACCESS:      10668  itHIT:       1126  itMISS:       9542  dtACCESS:     209176  dtHIT:      13420  dtMISS:     195756
cpu0_L1D LOAD         ACCESS:   18894364  HIT:   17364419  MISS:    1529945  iACCESS:          0  iHIT:          0  iMISS:          0  dACCESS:   18894364  dHIT:   17364419  dMISS:    1529945  itACCESS:          0  itHIT:          0  itMISS:          0  dtACCESS:          0  dtHIT:          0  dtMISS:          0
cpu0_L1D RFO          ACCESS:          0  HIT:          0  MISS:          0  iACCESS:          0  iHIT:          0  iMISS:          0  dACCESS:          0  dHIT:          0  dMISS:          0  itACCESS:          0  itHIT:          0  itMISS:          0  dtACCESS:          0  dtHIT:          0  dtMISS:          0
cpu0_L1D PREFETCH     ACCESS:   12131003  HIT:   10761475  MISS:    1369528  iACCESS:          0  iHIT:          0  iMISS:          0  dACCESS:   12131003  dHIT:   10761475  dMISS:    1369528  itACCESS:          0  itHIT:          0  itMISS:          0  dtACCESS:          0  dtHIT:          0  dtMISS:          0
cpu0_L1D WRITE        ACCESS:   10218119  HIT:    9771228  MISS:     446891  iACCESS:          0  iHIT:          0  iMISS:          0  dACCESS:   10218119  dHIT:    9771228  dMISS:     446891  itACCESS:          0  itHIT:          0  itMISS:          0  dtACCESS:          0  dtHIT:          0  dtMISS:          0
cpu0_L1D TRANSLATION  ACCESS:     219844  HIT:      14546  MISS:     205298  iACCESS:          0  iHIT:          0  iMISS:          0  dACCESS:          0  dHIT:          0  dMISS:          0  itACCESS:      10668  itHIT:       1126  itMISS:       9542  dtACCESS:     209176  dtHIT:      13420  dtMISS:     195756
cpu0_L1D PREFETCH  REQUESTED:   18894364  ISSUED:   16916959  CROSSED:          0  USEFUL:     305884  USELESS:     701793
cpu0_L1D AVERAGE iMISS LATENCY: 0 cycles
cpu0_L1D AVERAGE dMISS LATENCY: 32.7994 cycles
cpu0_L1D AVERAGE itMISS LATENCY: 0.352289 cycles
cpu0_L1D AVERAGE dtMISS LATENCY: 6.30898 cycles
cpu0_L1D PAGE CROSSINGS (TLB HIT):         0 
cpu0_L1D PAGE CROSSINGS (TLB MISS):         0 
cpu0_L1D AVERAGE MISS LATENCY: 39.4607 cycles
cpu0_L2C TOTAL       ACCESS:    6932169  HIT:    4029488  MISS:    2902681  iACCESS:    3284954  iHIT:    2192721  iMISS:    1092233  dACCESS:    3452370  dHIT:    1805247  dMISS:    1647123  itACCESS:       9542  itHIT:       1630  itMISS:       7912  dtACCESS:     185303  dtHIT:      29890  dtMISS:     155413
cpu0_L2C LOAD         ACCESS:    1733454  HIT:    1038119  MISS:     695335  iACCESS:     797831  iHIT:     558582  iMISS:     239249  dACCESS:     935623  dHIT:     479537  dMISS:     456086  itACCESS:          0  itHIT:          0  itMISS:          0  dtACCESS:          0  dtHIT:          0  dtMISS:          0
cpu0_L2C RFO          ACCESS:     157515  HIT:      70604  MISS:      86911  iACCESS:          0  iHIT:          0  iMISS:          0  dACCESS:     157515  dHIT:      70604  dMISS:      86911  itACCESS:          0  itHIT:          0  itMISS:          0  dtACCESS:          0  dtHIT:          0  dtMISS:          0
cpu0_L2C PREFETCH     ACCESS:    4559430  HIT:    2603735  MISS:    1955695  iACCESS:    2487123  iHIT:    1634139  iMISS:     852984  dACCESS:    2072307  dHIT:     969596  dMISS:    1102711  itACCESS:          0  itHIT:          0  itMISS:          0  dtACCESS:          0  dtHIT:          0  dtMISS:          0
cpu0_L2C WRITE        ACCESS:     286925  HIT:     285510  MISS:       1415  iACCESS:          0  iHIT:          0  iMISS:          0  dACCESS:     286925  dHIT:     285510  dMISS:       1415  itACCESS:          0  itHIT:          0  itMISS:          0  dtACCESS:          0  dtHIT:          0  dtMISS:          0
cpu0_L2C TRANSLATION  ACCESS:     194845  HIT:      31520  MISS:     163325  iACCESS:          0  iHIT:          0  iMISS:          0  dACCESS:          0  dHIT:          0  dMISS:          0  itACCESS:       9542  itHIT:       1630  itMISS:       7912  dtACCESS:     185303  dtHIT:      29890  dtMISS:     155413
cpu0_L2C PREFETCH  REQUESTED:    1308280  ISSUED:    1308280  CROSSED:          0  USEFUL:     301371  USELESS:     222983
cpu0_L2C AVERAGE iMISS LATENCY: 25.1913 cycles
cpu0_L2C AVERAGE dMISS LATENCY: 46.6308 cycles
cpu0_L2C AVERAGE itMISS LATENCY: 0.398688 cycles
cpu0_L2C AVERAGE dtMISS LATENCY: 7.08667 cycles
cpu0_L2C PAGE CROSSINGS (TLB HIT):         0 
cpu0_L2C PAGE CROSSINGS (TLB MISS):         0 
cpu0_L2C AVERAGE MISS LATENCY: 79.3074 cycles
LLC TOTAL       ACCESS:    2939529  HIT:    1839800  MISS:    1099729  iACCESS:    1041765  iHIT:     688957  iMISS:     352808  dACCESS:    1734439  dHIT:    1090575  dMISS:     643864  itACCESS:       7912  itHIT:       2202  itMISS:       5710  dtACCESS:     155413  dtHIT:      58066  dtMISS:      97347
LLC LOAD         ACCESS:     693352  HIT:     451184  MISS:     242168  iACCESS:     238093  iHIT:     163323  iMISS:      74770  dACCESS:     455259  dHIT:     287861  dMISS:     167398  itACCESS:          0  itHIT:          0  itMISS:          0  dtACCESS:          0  dtHIT:          0  dtMISS:          0
LLC RFO          ACCESS:      86909  HIT:      44933  MISS:      41976  iACCESS:          0  iHIT:          0  iMISS:          0  dACCESS:      86909  dHIT:      44933  dMISS:      41976  itACCESS:          0  itHIT:          0  itMISS:          0  dtACCESS:          0  dtHIT:          0  dtMISS:          0
LLC PREFETCH     ACCESS:    1854021  HIT:    1147775  MISS:     706246  iACCESS:     803672  iHIT:     525634  iMISS:     278038  dACCESS:    1050349  dHIT:     622141  dMISS:     428208  itACCESS:          0  itHIT:          0  itMISS:          0  dtACCESS:          0  dtHIT:          0  dtMISS:          0
LLC WRITE        ACCESS:     141922  HIT:     135640  MISS:       6282  iACCESS:          0  iHIT:          0  iMISS:          0  dACCESS:     141922  dHIT:     135640  dMISS:       6282  itACCESS:          0  itHIT:          0  itMISS:          0  dtACCESS:          0  dtHIT:          0  dtMISS:          0
LLC TRANSLATION  ACCESS:     163325  HIT:      60268  MISS:     103057  iACCESS:          0  iHIT:          0  iMISS:          0  dACCESS:          0  dHIT:          0  dMISS:          0  itACCESS:       7912  itHIT:       2202  itMISS:       5710  dtACCESS:     155413  dtHIT:      58066  dtMISS:      97347
LLC PREFETCH  REQUESTED:          0  ISSUED:          0  CROSSED:          0  USEFUL:          0  USELESS:          0
LLC AVERAGE iMISS LATENCY: 48.0798 cycles
LLC AVERAGE dMISS LATENCY: 95.2136 cycles
LLC AVERAGE itMISS LATENCY: 0.91088 cycles
LLC AVERAGE dtMISS LATENCY: 15.9388 cycles
LLC PAGE CROSSINGS (TLB HIT):         0 
LLC PAGE CROSSINGS (TLB MISS):         0 
LLC AVERAGE MISS LATENCY: 160.143 cycles

PageTableWalker TOTAL       ACCESS:      71314  
PageTableWalker AVERAGE LATENCY: 5.87309 cycles
PageTableWalker TOTAL LATENCY: 418833 cycles

DRAM Statistics
Channel 0
 RQ ROW_BUFFER_HIT:     278370
  ROW_BUFFER_MISS:     814339
 AVG DBUS CONGESTED CYCLE:    3.62272
 WQ ROW_BUFFER_HIT:      23024
  ROW_BUFFER_MISS:      23640  FULL:          0

