last_page:0x200000000000000
VMEM_RES_CAP:0x100000
PAGE_SIZE:4096
LOG2_PAGE_SIZE:12
LOG2_PAGE_TABLE_SIZE:9
page_table_levels:5
WARNING: physical memory size is smaller than virtual memory size
FDiP enabled with aggresivity 16

*** ChampSim Multicore Out-of-Order Simulator ***

Warmup Instructions: 50000000
Simulation Instructions: 100000000
Number of CPUs: 1
Small page size: 4096
Large page size: 2097152

CPU 0 Bimodal branch predictor
Basic BTB sets: 1024 ways: 8 indirect buffer size: 4096 RAS size: 64
Instruction page size distrubution: 0
Loading instruction page size distribution from /home/bsc/bsc018186/scratch/itp_asplos25_AE/dump/srv32_ap.pdst
Data page size distrubution: 0
Loading data page size distribution from /home/bsc/bsc018186/scratch/itp_asplos25_AE/dump/srv32_ap.pdst
cpu0_L2C IP-based stride prefetcher
cpu0_L2C is using xPTP/LRU
	TLB_LOWER_STRESS_THRESHOLD:1
	TLB_UPPER_STRESS_THRESHOLD:9
	MIN_EVICTION_POSITION:4
cpu0_L1D next line prefetcher
cpu0_STLB using iTP with max lru@8
cpu0_STLB using iTP with instr@0 and data@2
Init sat counter with 3 bits (max:50).
cpu0_L1I next line prefetcher
Off-chip DRAM Size: 4 GiB Channels: 1 Width: 64-bit Data Rate: 3200 MT/s
Heartbeat CPU 0 instructions: 10000001 cycles: 2500120 heartbeat IPC: 3.99981 cumulative IPC: 3.99981 (Simulation time: 0 hr 0 min 39 sec) 
Heartbeat CPU 0 instructions: 20000001 cycles: 5000144 heartbeat IPC: 3.99997 cumulative IPC: 3.99989 (Simulation time: 0 hr 1 min 20 sec) 
Heartbeat CPU 0 instructions: 30000003 cycles: 7500184 heartbeat IPC: 3.99994 cumulative IPC: 3.99991 (Simulation time: 0 hr 1 min 59 sec) 
Heartbeat CPU 0 instructions: 40000001 cycles: 10000212 heartbeat IPC: 3.99996 cumulative IPC: 3.99992 (Simulation time: 0 hr 2 min 40 sec) 
Heartbeat CPU 0 instructions: 50000001 cycles: 12500244 heartbeat IPC: 3.99995 cumulative IPC: 3.99993 (Simulation time: 0 hr 3 min 22 sec) 
Warmup finished CPU 0 instructions: 50000001 cycles: 12500245 cumulative IPC: 3.99993 (Simulation time: 0 hr 3 min 22 sec) 

Warmup complete CPU 0 instructions: 50000001 cycles: 12500245 (Simulation time: 0 hr 3 min 22 sec) 

Heartbeat CPU 0 instructions: 60000000 cycles: 29164979 heartbeat IPC: 0.60007 cumulative IPC: 0.60007 (Simulation time: 0 hr 4 min 31 sec) 
Heartbeat CPU 0 instructions: 70000000 cycles: 46954819 heartbeat IPC: 0.562119 cumulative IPC: 0.580475 (Simulation time: 0 hr 5 min 40 sec) 
Heartbeat CPU 0 instructions: 80000000 cycles: 63852625 heartbeat IPC: 0.591793 cumulative IPC: 0.584199 (Simulation time: 0 hr 6 min 48 sec) 
Heartbeat CPU 0 instructions: 90000000 cycles: 80811138 heartbeat IPC: 0.589675 cumulative IPC: 0.585559 (Simulation time: 0 hr 7 min 58 sec) 
Heartbeat CPU 0 instructions: 100000002 cycles: 97831604 heartbeat IPC: 0.587529 cumulative IPC: 0.585952 (Simulation time: 0 hr 9 min 9 sec) 
*** Reached end of trace: /gpfs/projects/bsc18/MN4/bsc18/romol/ChampSim/traces/qualcomm_srv/srv32_ap.champsimtrace.xz
Heartbeat CPU 0 instructions: 110000001 cycles: 115194632 heartbeat IPC: 0.575937 cumulative IPC: 0.584258 (Simulation time: 0 hr 10 min 19 sec) 
Heartbeat CPU 0 instructions: 120000003 cycles: 131990794 heartbeat IPC: 0.595375 cumulative IPC: 0.585821 (Simulation time: 0 hr 11 min 34 sec) 
Heartbeat CPU 0 instructions: 130000001 cycles: 148784429 heartbeat IPC: 0.595464 cumulative IPC: 0.587009 (Simulation time: 0 hr 12 min 48 sec) 
Heartbeat CPU 0 instructions: 140000002 cycles: 165927057 heartbeat IPC: 0.583342 cumulative IPC: 0.586599 (Simulation time: 0 hr 14 min 0 sec) 
Heartbeat CPU 0 instructions: 150000002 cycles: 183479452 heartbeat IPC: 0.569723 cumulative IPC: 0.584867 (Simulation time: 0 hr 15 min 15 sec) 
Simulation finished CPU 0 instructions: 100000001 cycles: 170979208 cumulative IPC: 0.584867 (Simulation time: 0 hr 15 min 15 sec) 

Simulation complete CPU 0 instructions: 100000001 cycles: 170979208 (Simulation time: 0 hr 15 min 15 sec) 


ChampSim completed all CPUs

Saving instructions large page distribution to /home/bsc/bsc018186/scratch/itp_asplos25_AE/dump/srv32_ap.pdst...
Saving data large page distribution to /home/bsc/bsc018186/scratch/itp_asplos25_AE/dump/srv32_ap.pdst...
=== Simulation ===
CPU 0 runs /gpfs/projects/bsc18/MN4/bsc18/romol/ChampSim/traces/qualcomm_srv/srv32_ap.champsimtrace.xz

Region of Interest Statistics

CPU 0 cumulative IPC: 0.584867 instructions: 100000001 cycles: 170979208
CPU 0 Branch Prediction Accuracy: 80.4054% MPKI: 35.4364 Average ROB Occupancy at Mispredict: 10.991
Branch type MPKI
BRANCH_DIRECT_JUMP: 1.29136
BRANCH_INDIRECT: 17.8648
BRANCH_CONDITIONAL: 11.4624
BRANCH_DIRECT_CALL: 2.42607
BRANCH_INDIRECT_CALL: 0.68794
BRANCH_RETURN: 1.70384

Instructions large pages: 0
Instructions small pages: 1160
Large page distribution for instructions: 0%

Data large pages: 0
Data small pages: 5066
Large page distribution for data: 0%

cpu0_L1I TOTAL       ACCESS:   35567760  HIT:   27514415  MISS:    8053345  iACCESS:   35567760  iHIT:   27514415  iMISS:    8053345  dACCESS:          0  dHIT:          0  dMISS:          0  itACCESS:          0  itHIT:          0  itMISS:          0  dtACCESS:          0  dtHIT:          0  dtMISS:          0
cpu0_L1I LOAD         ACCESS:   10238934  HIT:    8026490  MISS:    2212444  iACCESS:   10238934  iHIT:    8026490  iMISS:    2212444  dACCESS:          0  dHIT:          0  dMISS:          0  itACCESS:          0  itHIT:          0  itMISS:          0  dtACCESS:          0  dtHIT:          0  dtMISS:          0
cpu0_L1I RFO          ACCESS:          0  HIT:          0  MISS:          0  iACCESS:          0  iHIT:          0  iMISS:          0  dACCESS:          0  dHIT:          0  dMISS:          0  itACCESS:          0  itHIT:          0  itMISS:          0  dtACCESS:          0  dtHIT:          0  dtMISS:          0
cpu0_L1I PREFETCH     ACCESS:   25328826  HIT:   19487925  MISS:    5840901  iACCESS:   25328826  iHIT:   19487925  iMISS:    5840901  dACCESS:          0  dHIT:          0  dMISS:          0  itACCESS:          0  itHIT:          0  itMISS:          0  dtACCESS:          0  dtHIT:          0  dtMISS:          0
cpu0_L1I WRITE        ACCESS:          0  HIT:          0  MISS:          0  iACCESS:          0  iHIT:          0  iMISS:          0  dACCESS:          0  dHIT:          0  dMISS:          0  itACCESS:          0  itHIT:          0  itMISS:          0  dtACCESS:          0  dtHIT:          0  dtMISS:          0
cpu0_L1I TRANSLATION  ACCESS:          0  HIT:          0  MISS:          0  iACCESS:          0  iHIT:          0  iMISS:          0  dACCESS:          0  dHIT:          0  dMISS:          0  itACCESS:          0  itHIT:          0  itMISS:          0  dtACCESS:          0  dtHIT:          0  dtMISS:          0
cpu0_L1I PREFETCH  REQUESTED:   27614780  ISSUED:   27614648  CROSSED:          0  USEFUL:    1969584  USELESS:     654232
cpu0_L1I AVERAGE iMISS LATENCY: 16.2294 cycles
cpu0_L1I AVERAGE dMISS LATENCY: 0 cycles
cpu0_L1I AVERAGE itMISS LATENCY: 0 cycles
cpu0_L1I AVERAGE dtMISS LATENCY: 0 cycles
cpu0_L1I PAGE CROSSINGS (TLB HIT):         0 
cpu0_L1I PAGE CROSSINGS (TLB MISS):         0 
cpu0_L1I AVERAGE MISS LATENCY: 16.2294 cycles
cpu0_ITLB TOTAL       ACCESS:   29895722  HIT:   27965716  MISS:    1930006  iACCESS:   29895722  iHIT:   27965716  iMISS:    1930006  dACCESS:          0  dHIT:          0  dMISS:          0  itACCESS:          0  itHIT:          0  itMISS:          0  dtACCESS:          0  dtHIT:          0  dtMISS:          0
cpu0_ITLB LOAD         ACCESS:   29895722  HIT:   27965716  MISS:    1930006  iACCESS:   29895722  iHIT:   27965716  iMISS:    1930006  dACCESS:          0  dHIT:          0  dMISS:          0  itACCESS:          0  itHIT:          0  itMISS:          0  dtACCESS:          0  dtHIT:          0  dtMISS:          0
cpu0_ITLB RFO          ACCESS:          0  HIT:          0  MISS:          0  iACCESS:          0  iHIT:          0  iMISS:          0  dACCESS:          0  dHIT:          0  dMISS:          0  itACCESS:          0  itHIT:          0  itMISS:          0  dtACCESS:          0  dtHIT:          0  dtMISS:          0
cpu0_ITLB PREFETCH     ACCESS:          0  HIT:          0  MISS:          0  iACCESS:          0  iHIT:          0  iMISS:          0  dACCESS:          0  dHIT:          0  dMISS:          0  itACCESS:          0  itHIT:          0  itMISS:          0  dtACCESS:          0  dtHIT:          0  dtMISS:          0
cpu0_ITLB WRITE        ACCESS:          0  HIT:          0  MISS:          0  iACCESS:          0  iHIT:          0  iMISS:          0  dACCESS:          0  dHIT:          0  dMISS:          0  itACCESS:          0  itHIT:          0  itMISS:          0  dtACCESS:          0  dtHIT:          0  dtMISS:          0
cpu0_ITLB TRANSLATION  ACCESS:          0  HIT:          0  MISS:          0  iACCESS:          0  iHIT:          0  iMISS:          0  dACCESS:          0  dHIT:          0  dMISS:          0  itACCESS:          0  itHIT:          0  itMISS:          0  dtACCESS:          0  dtHIT:          0  dtMISS:          0
cpu0_ITLB PREFETCH  REQUESTED:          0  ISSUED:          0  CROSSED:          0  USEFUL:     330073  USELESS:      60975
cpu0_ITLB AVERAGE iMISS LATENCY: 2.98245 cycles
cpu0_ITLB AVERAGE dMISS LATENCY: 0 cycles
cpu0_ITLB AVERAGE itMISS LATENCY: 0 cycles
cpu0_ITLB AVERAGE dtMISS LATENCY: 0 cycles
cpu0_ITLB PAGE CROSSINGS (TLB HIT):         0 
cpu0_ITLB PAGE CROSSINGS (TLB MISS):         0 
cpu0_ITLB AVERAGE MISS LATENCY: 2.98245 cycles
cpu0_DTLB TOTAL       ACCESS:   28101733  HIT:   26337761  MISS:    1763972  iACCESS:          0  iHIT:          0  iMISS:          0  dACCESS:   28101733  dHIT:   26337761  dMISS:    1763972  itACCESS:          0  itHIT:          0  itMISS:          0  dtACCESS:          0  dtHIT:          0  dtMISS:          0
cpu0_DTLB LOAD         ACCESS:   28101733  HIT:   26337761  MISS:    1763972  iACCESS:          0  iHIT:          0  iMISS:          0  dACCESS:   28101733  dHIT:   26337761  dMISS:    1763972  itACCESS:          0  itHIT:          0  itMISS:          0  dtACCESS:          0  dtHIT:          0  dtMISS:          0
cpu0_DTLB RFO          ACCESS:          0  HIT:          0  MISS:          0  iACCESS:          0  iHIT:          0  iMISS:          0  dACCESS:          0  dHIT:          0  dMISS:          0  itACCESS:          0  itHIT:          0  itMISS:          0  dtACCESS:          0  dtHIT:          0  dtMISS:          0
cpu0_DTLB PREFETCH     ACCESS:          0  HIT:          0  MISS:          0  iACCESS:          0  iHIT:          0  iMISS:          0  dACCESS:          0  dHIT:          0  dMISS:          0  itACCESS:          0  itHIT:          0  itMISS:          0  dtACCESS:          0  dtHIT:          0  dtMISS:          0
cpu0_DTLB WRITE        ACCESS:          0  HIT:          0  MISS:          0  iACCESS:          0  iHIT:          0  iMISS:          0  dACCESS:          0  dHIT:          0  dMISS:          0  itACCESS:          0  itHIT:          0  itMISS:          0  dtACCESS:          0  dtHIT:          0  dtMISS:          0
cpu0_DTLB TRANSLATION  ACCESS:          0  HIT:          0  MISS:          0  iACCESS:          0  iHIT:          0  iMISS:          0  dACCESS:          0  dHIT:          0  dMISS:          0  itACCESS:          0  itHIT:          0  itMISS:          0  dtACCESS:          0  dtHIT:          0  dtMISS:          0
cpu0_DTLB PREFETCH  REQUESTED:          0  ISSUED:          0  CROSSED:          0  USEFUL:          0  USELESS:          0
cpu0_DTLB AVERAGE iMISS LATENCY: 0 cycles
cpu0_DTLB AVERAGE dMISS LATENCY: 14.3712 cycles
cpu0_DTLB AVERAGE itMISS LATENCY: 0 cycles
cpu0_DTLB AVERAGE dtMISS LATENCY: 0 cycles
cpu0_DTLB PAGE CROSSINGS (TLB HIT):         0 
cpu0_DTLB PAGE CROSSINGS (TLB MISS):         0 
cpu0_DTLB AVERAGE MISS LATENCY: 14.3712 cycles
cpu0_STLB TOTAL       ACCESS:    1501634  HIT:    1293356  MISS:     208278  iACCESS:     391069  iHIT:     369130  iMISS:      21939  dACCESS:    1110565  dHIT:     924226  dMISS:     186339  itACCESS:          0  itHIT:          0  itMISS:          0  dtACCESS:          0  dtHIT:          0  dtMISS:          0
cpu0_STLB LOAD         ACCESS:    1501634  HIT:    1293356  MISS:     208278  iACCESS:     391069  iHIT:     369130  iMISS:      21939  dACCESS:    1110565  dHIT:     924226  dMISS:     186339  itACCESS:          0  itHIT:          0  itMISS:          0  dtACCESS:          0  dtHIT:          0  dtMISS:          0
cpu0_STLB RFO          ACCESS:          0  HIT:          0  MISS:          0  iACCESS:          0  iHIT:          0  iMISS:          0  dACCESS:          0  dHIT:          0  dMISS:          0  itACCESS:          0  itHIT:          0  itMISS:          0  dtACCESS:          0  dtHIT:          0  dtMISS:          0
cpu0_STLB PREFETCH     ACCESS:          0  HIT:          0  MISS:          0  iACCESS:          0  iHIT:          0  iMISS:          0  dACCESS:          0  dHIT:          0  dMISS:          0  itACCESS:          0  itHIT:          0  itMISS:          0  dtACCESS:          0  dtHIT:          0  dtMISS:          0
cpu0_STLB WRITE        ACCESS:          0  HIT:          0  MISS:          0  iACCESS:          0  iHIT:          0  iMISS:          0  dACCESS:          0  dHIT:          0  dMISS:          0  itACCESS:          0  itHIT:          0  itMISS:          0  dtACCESS:          0  dtHIT:          0  dtMISS:          0
cpu0_STLB TRANSLATION  ACCESS:          0  HIT:          0  MISS:          0  iACCESS:          0  iHIT:          0  iMISS:          0  dACCESS:          0  dHIT:          0  dMISS:          0  itACCESS:          0  itHIT:          0  itMISS:          0  dtACCESS:          0  dtHIT:          0  dtMISS:          0
cpu0_STLB PREFETCH  REQUESTED:          0  ISSUED:          0  CROSSED:          0  USEFUL:          0  USELESS:          0
cpu0_STLB AVERAGE iMISS LATENCY: 13.0009 cycles
cpu0_STLB AVERAGE dMISS LATENCY: 78.7915 cycles
cpu0_STLB AVERAGE itMISS LATENCY: 0 cycles
cpu0_STLB AVERAGE dtMISS LATENCY: 0 cycles
cpu0_STLB PAGE CROSSINGS (TLB HIT):         0 
cpu0_STLB PAGE CROSSINGS (TLB MISS):         0 
cpu0_STLB AVERAGE MISS LATENCY: 91.7924 cycles
cpu0_L1D TOTAL       ACCESS:   42547447  HIT:   38535379  MISS:    4012068  iACCESS:          0  iHIT:          0  iMISS:          0  dACCESS:   42269585  dHIT:   38517870  dMISS:    3751715  itACCESS:      25417  itHIT:       1998  itMISS:      23419  dtACCESS:     252445  dtHIT:      15511  dtMISS:     236934
cpu0_L1D LOAD         ACCESS:   19404770  HIT:   17700305  MISS:    1704465  iACCESS:          0  iHIT:          0  iMISS:          0  dACCESS:   19404770  dHIT:   17700305  dMISS:    1704465  itACCESS:          0  itHIT:          0  itMISS:          0  dtACCESS:          0  dtHIT:          0  dtMISS:          0
cpu0_L1D RFO          ACCESS:          0  HIT:          0  MISS:          0  iACCESS:          0  iHIT:          0  iMISS:          0  dACCESS:          0  dHIT:          0  dMISS:          0  itACCESS:          0  itHIT:          0  itMISS:          0  dtACCESS:          0  dtHIT:          0  dtMISS:          0
cpu0_L1D PREFETCH     ACCESS:   12655914  HIT:   11095708  MISS:    1560206  iACCESS:          0  iHIT:          0  iMISS:          0  dACCESS:   12655914  dHIT:   11095708  dMISS:    1560206  itACCESS:          0  itHIT:          0  itMISS:          0  dtACCESS:          0  dtHIT:          0  dtMISS:          0
cpu0_L1D WRITE        ACCESS:   10208901  HIT:    9721857  MISS:     487044  iACCESS:          0  iHIT:          0  iMISS:          0  dACCESS:   10208901  dHIT:    9721857  dMISS:     487044  itACCESS:          0  itHIT:          0  itMISS:          0  dtACCESS:          0  dtHIT:          0  dtMISS:          0
cpu0_L1D TRANSLATION  ACCESS:     277862  HIT:      17509  MISS:     260353  iACCESS:          0  iHIT:          0  iMISS:          0  dACCESS:          0  dHIT:          0  dMISS:          0  itACCESS:      25417  itHIT:       1998  itMISS:      23419  dtACCESS:     252445  dtHIT:      15511  dtMISS:     236934
cpu0_L1D PREFETCH  REQUESTED:   19404770  ISSUED:   17242901  CROSSED:          0  USEFUL:     310911  USELESS:     702596
cpu0_L1D AVERAGE iMISS LATENCY: 0 cycles
cpu0_L1D AVERAGE dMISS LATENCY: 35.6262 cycles
cpu0_L1D AVERAGE itMISS LATENCY: 0.615557 cycles
cpu0_L1D AVERAGE dtMISS LATENCY: 3.49188 cycles
cpu0_L1D PAGE CROSSINGS (TLB HIT):         0 
cpu0_L1D PAGE CROSSINGS (TLB MISS):         0 
cpu0_L1D AVERAGE MISS LATENCY: 39.7336 cycles
cpu0_L2C TOTAL       ACCESS:    7226787  HIT:    2473628  MISS:    4753159  iACCESS:    3349370  iHIT:    1363964  iMISS:    1985406  dACCESS:    3620043  dHIT:     950029  dMISS:    2670014  itACCESS:      23419  itHIT:       7398  itMISS:      16021  dtACCESS:     233955  dtHIT:     152237  dtMISS:      81718
cpu0_L2C LOAD         ACCESS:    1713886  HIT:     506730  MISS:    1207156  iACCESS:     764408  iHIT:     284441  iMISS:     479967  dACCESS:     949478  dHIT:     222289  dMISS:     727189  itACCESS:          0  itHIT:          0  itMISS:          0  dtACCESS:          0  dtHIT:          0  dtMISS:          0
cpu0_L2C RFO          ACCESS:     164805  HIT:      28054  MISS:     136751  iACCESS:          0  iHIT:          0  iMISS:          0  dACCESS:     164805  dHIT:      28054  dMISS:     136751  itACCESS:          0  itHIT:          0  itMISS:          0  dtACCESS:          0  dtHIT:          0  dtMISS:          0
cpu0_L2C PREFETCH     ACCESS:    4816105  HIT:    1665916  MISS:    3150189  iACCESS:    2584962  iHIT:    1079523  iMISS:    1505439  dACCESS:    2231143  dHIT:     586393  dMISS:    1644750  itACCESS:          0  itHIT:          0  itMISS:          0  dtACCESS:          0  dtHIT:          0  dtMISS:          0
cpu0_L2C WRITE        ACCESS:     274617  HIT:     113293  MISS:     161324  iACCESS:          0  iHIT:          0  iMISS:          0  dACCESS:     274617  dHIT:     113293  dMISS:     161324  itACCESS:          0  itHIT:          0  itMISS:          0  dtACCESS:          0  dtHIT:          0  dtMISS:          0
cpu0_L2C TRANSLATION  ACCESS:     257374  HIT:     159635  MISS:      97739  iACCESS:          0  iHIT:          0  iMISS:          0  dACCESS:          0  dHIT:          0  dMISS:          0  itACCESS:      23419  itHIT:       7398  itMISS:      16021  dtACCESS:     233955  dtHIT:     152237  dtMISS:      81718
cpu0_L2C PREFETCH  REQUESTED:    1472971  ISSUED:    1472923  CROSSED:          0  USEFUL:     367042  USELESS:     375094
cpu0_L2C AVERAGE iMISS LATENCY: 21.1786 cycles
cpu0_L2C AVERAGE dMISS LATENCY: 36.9649 cycles
cpu0_L2C AVERAGE itMISS LATENCY: 0.471685 cycles
cpu0_L2C AVERAGE dtMISS LATENCY: 2.48517 cycles
cpu0_L2C PAGE CROSSINGS (TLB HIT):         0 
cpu0_L2C PAGE CROSSINGS (TLB MISS):         0 
cpu0_L2C AVERAGE MISS LATENCY: 61.1002 cycles
LLC TOTAL       ACCESS:    4640993  HIT:    3361476  MISS:    1279517  iACCESS:    1918460  iHIT:    1491534  iMISS:     426926  dACCESS:    2624794  dHIT:    1839909  dMISS:     784885  itACCESS:      16021  itHIT:       5037  itMISS:      10984  dtACCESS:      81718  dtHIT:      24996  dtMISS:      56722
LLC LOAD         ACCESS:    1201209  HIT:     917940  MISS:     283269  iACCESS:     478570  iHIT:     391303  iMISS:      87267  dACCESS:     722639  dHIT:     526637  dMISS:     196002  itACCESS:          0  itHIT:          0  itMISS:          0  dtACCESS:          0  dtHIT:          0  dtMISS:          0
LLC RFO          ACCESS:     136735  HIT:      79126  MISS:      57609  iACCESS:          0  iHIT:          0  iMISS:          0  dACCESS:     136735  dHIT:      79126  dMISS:      57609  itACCESS:          0  itHIT:          0  itMISS:          0  dtACCESS:          0  dtHIT:          0  dtMISS:          0
LLC PREFETCH     ACCESS:    2998139  HIT:    2130124  MISS:     868015  iACCESS:    1439890  iHIT:    1100231  iMISS:     339659  dACCESS:    1558249  dHIT:    1029893  dMISS:     528356  itACCESS:          0  itHIT:          0  itMISS:          0  dtACCESS:          0  dtHIT:          0  dtMISS:          0
LLC WRITE        ACCESS:     207171  HIT:     204253  MISS:       2918  iACCESS:          0  iHIT:          0  iMISS:          0  dACCESS:     207171  dHIT:     204253  dMISS:       2918  itACCESS:          0  itHIT:          0  itMISS:          0  dtACCESS:          0  dtHIT:          0  dtMISS:          0
LLC TRANSLATION  ACCESS:      97739  HIT:      30033  MISS:      67706  iACCESS:          0  iHIT:          0  iMISS:          0  dACCESS:          0  dHIT:          0  dMISS:          0  itACCESS:      16021  itHIT:       5037  itMISS:      10984  dtACCESS:      81718  dtHIT:      24996  dtMISS:      56722
LLC PREFETCH  REQUESTED:          0  ISSUED:          0  CROSSED:          0  USEFUL:          0  USELESS:          0
LLC AVERAGE iMISS LATENCY: 49.6479 cycles
LLC AVERAGE dMISS LATENCY: 101.582 cycles
LLC AVERAGE itMISS LATENCY: 1.50642 cycles
LLC AVERAGE dtMISS LATENCY: 7.97613 cycles
LLC PAGE CROSSINGS (TLB HIT):         0 
LLC PAGE CROSSINGS (TLB MISS):         0 
LLC AVERAGE MISS LATENCY: 160.713 cycles

PageTableWalker TOTAL       ACCESS:     100621  
PageTableWalker AVERAGE LATENCY: 4.25276 cycles
PageTableWalker TOTAL LATENCY: 427916 cycles

DRAM Statistics
Channel 0
 RQ ROW_BUFFER_HIT:     344156
  ROW_BUFFER_MISS:     925891
 AVG DBUS CONGESTED CYCLE:    3.63263
 WQ ROW_BUFFER_HIT:      33853
  ROW_BUFFER_MISS:      33083  FULL:          0

