last_page:0x200000000000000
VMEM_RES_CAP:0x100000
PAGE_SIZE:4096
LOG2_PAGE_SIZE:12
LOG2_PAGE_TABLE_SIZE:9
page_table_levels:5
WARNING: physical memory size is smaller than virtual memory size
FDiP enabled with aggresivity 16

*** ChampSim Multicore Out-of-Order Simulator ***

Warmup Instructions: 50000000
Simulation Instructions: 100000000
Number of CPUs: 1
Small page size: 4096
Large page size: 2097152

CPU 0 Bimodal branch predictor
Basic BTB sets: 1024 ways: 8 indirect buffer size: 4096 RAS size: 64
Instruction page size distrubution: 0
Loading instruction page size distribution from /home/bsc/bsc018186/scratch/itp_asplos25_AE/dump/srv393_ap.pdst
Data page size distrubution: 0
Loading data page size distribution from /home/bsc/bsc018186/scratch/itp_asplos25_AE/dump/srv393_ap.pdst
cpu0_L2C IP-based stride prefetcher
cpu0_L2C is using PTP replacement policy:
	TLB_STRESS_THRESHOLD:0
	PTE_EVICTION_RATIO:0
cpu0_L1D next line prefetcher
cpu0_STLB using iTP with max lru@8
cpu0_STLB using iTP with instr@0 and data@2
Init sat counter with 3 bits (max:50).
cpu0_L1I next line prefetcher
Off-chip DRAM Size: 4 GiB Channels: 1 Width: 64-bit Data Rate: 3200 MT/s
Heartbeat CPU 0 instructions: 10000000 cycles: 2500163 heartbeat IPC: 3.99974 cumulative IPC: 3.99974 (Simulation time: 0 hr 0 min 39 sec) 
Heartbeat CPU 0 instructions: 20000001 cycles: 5000315 heartbeat IPC: 3.99976 cumulative IPC: 3.99975 (Simulation time: 0 hr 1 min 21 sec) 
Heartbeat CPU 0 instructions: 30000001 cycles: 7500335 heartbeat IPC: 3.99997 cumulative IPC: 3.99983 (Simulation time: 0 hr 2 min 5 sec) 
Heartbeat CPU 0 instructions: 40000003 cycles: 10000455 heartbeat IPC: 3.99981 cumulative IPC: 3.99982 (Simulation time: 0 hr 2 min 48 sec) 
Heartbeat CPU 0 instructions: 50000001 cycles: 12500564 heartbeat IPC: 3.99983 cumulative IPC: 3.99982 (Simulation time: 0 hr 3 min 32 sec) 
Warmup finished CPU 0 instructions: 50000001 cycles: 12500565 cumulative IPC: 3.99982 (Simulation time: 0 hr 3 min 32 sec) 

Warmup complete CPU 0 instructions: 50000001 cycles: 12500565 (Simulation time: 0 hr 3 min 32 sec) 

Heartbeat CPU 0 instructions: 60000002 cycles: 27110517 heartbeat IPC: 0.684465 cumulative IPC: 0.684466 (Simulation time: 0 hr 4 min 37 sec) 
Heartbeat CPU 0 instructions: 70000000 cycles: 42873964 heartbeat IPC: 0.634379 cumulative IPC: 0.658471 (Simulation time: 0 hr 5 min 47 sec) 
Heartbeat CPU 0 instructions: 80000000 cycles: 57925293 heartbeat IPC: 0.664394 cumulative IPC: 0.660434 (Simulation time: 0 hr 6 min 55 sec) 
Heartbeat CPU 0 instructions: 90000000 cycles: 74133523 heartbeat IPC: 0.616971 cumulative IPC: 0.649004 (Simulation time: 0 hr 8 min 4 sec) 
Heartbeat CPU 0 instructions: 100000000 cycles: 89106906 heartbeat IPC: 0.667852 cumulative IPC: 0.652688 (Simulation time: 0 hr 9 min 8 sec) 
*** Reached end of trace: /gpfs/projects/bsc18/MN4/bsc18/romol/ChampSim/traces/qualcomm_srv/srv393_ap.champsimtrace.xz
Heartbeat CPU 0 instructions: 110000002 cycles: 104143731 heartbeat IPC: 0.665035 cumulative IPC: 0.654714 (Simulation time: 0 hr 10 min 11 sec) 
Heartbeat CPU 0 instructions: 120000002 cycles: 119783486 heartbeat IPC: 0.639397 cumulative IPC: 0.652481 (Simulation time: 0 hr 11 min 16 sec) 
Heartbeat CPU 0 instructions: 130000000 cycles: 134198587 heartbeat IPC: 0.693717 cumulative IPC: 0.657365 (Simulation time: 0 hr 12 min 18 sec) 
Heartbeat CPU 0 instructions: 140000003 cycles: 148689585 heartbeat IPC: 0.690084 cumulative IPC: 0.660847 (Simulation time: 0 hr 13 min 21 sec) 
Heartbeat CPU 0 instructions: 150000001 cycles: 163262727 heartbeat IPC: 0.686194 cumulative IPC: 0.663297 (Simulation time: 0 hr 14 min 25 sec) 
Simulation finished CPU 0 instructions: 100000000 cycles: 150762163 cumulative IPC: 0.663297 (Simulation time: 0 hr 14 min 25 sec) 

Simulation complete CPU 0 instructions: 100000000 cycles: 150762163 (Simulation time: 0 hr 14 min 25 sec) 


ChampSim completed all CPUs

Saving instructions large page distribution to /home/bsc/bsc018186/scratch/itp_asplos25_AE/dump/srv393_ap.pdst...
Saving data large page distribution to /home/bsc/bsc018186/scratch/itp_asplos25_AE/dump/srv393_ap.pdst...
=== Simulation ===
CPU 0 runs /gpfs/projects/bsc18/MN4/bsc18/romol/ChampSim/traces/qualcomm_srv/srv393_ap.champsimtrace.xz

Region of Interest Statistics

CPU 0 cumulative IPC: 0.663297 instructions: 100000000 cycles: 150762163
CPU 0 Branch Prediction Accuracy: 83.2998% MPKI: 29.8572 Average ROB Occupancy at Mispredict: 12.9304
Branch type MPKI
BRANCH_DIRECT_JUMP: 1.03689
BRANCH_INDIRECT: 15.3649
BRANCH_CONDITIONAL: 9.72701
BRANCH_DIRECT_CALL: 1.86548
BRANCH_INDIRECT_CALL: 0.509731
BRANCH_RETURN: 1.35326

Instructions large pages: 0
Instructions small pages: 1028
Large page distribution for instructions: 0%

Data large pages: 0
Data small pages: 10369
Large page distribution for data: 0%

cpu0_L1I TOTAL       ACCESS:   34663134  HIT:   26939443  MISS:    7723691  iACCESS:   34663134  iHIT:   26939443  iMISS:    7723691  dACCESS:          0  dHIT:          0  dMISS:          0  itACCESS:          0  itHIT:          0  itMISS:          0  dtACCESS:          0  dtHIT:          0  dtMISS:          0
cpu0_L1I LOAD         ACCESS:   10182528  HIT:    8009170  MISS:    2173358  iACCESS:   10182528  iHIT:    8009170  iMISS:    2173358  dACCESS:          0  dHIT:          0  dMISS:          0  itACCESS:          0  itHIT:          0  itMISS:          0  dtACCESS:          0  dtHIT:          0  dtMISS:          0
cpu0_L1I RFO          ACCESS:          0  HIT:          0  MISS:          0  iACCESS:          0  iHIT:          0  iMISS:          0  dACCESS:          0  dHIT:          0  dMISS:          0  itACCESS:          0  itHIT:          0  itMISS:          0  dtACCESS:          0  dtHIT:          0  dtMISS:          0
cpu0_L1I PREFETCH     ACCESS:   24480606  HIT:   18930273  MISS:    5550333  iACCESS:   24480606  iHIT:   18930273  iMISS:    5550333  dACCESS:          0  dHIT:          0  dMISS:          0  itACCESS:          0  itHIT:          0  itMISS:          0  dtACCESS:          0  dtHIT:          0  dtMISS:          0
cpu0_L1I WRITE        ACCESS:          0  HIT:          0  MISS:          0  iACCESS:          0  iHIT:          0  iMISS:          0  dACCESS:          0  dHIT:          0  dMISS:          0  itACCESS:          0  itHIT:          0  itMISS:          0  dtACCESS:          0  dtHIT:          0  dtMISS:          0
cpu0_L1I TRANSLATION  ACCESS:          0  HIT:          0  MISS:          0  iACCESS:          0  iHIT:          0  iMISS:          0  dACCESS:          0  dHIT:          0  dMISS:          0  itACCESS:          0  itHIT:          0  itMISS:          0  dtACCESS:          0  dtHIT:          0  dtMISS:          0
cpu0_L1I PREFETCH  REQUESTED:   27063902  ISSUED:   27063902  CROSSED:          0  USEFUL:    1881291  USELESS:     623851
cpu0_L1I AVERAGE iMISS LATENCY: 13.1466 cycles
cpu0_L1I AVERAGE dMISS LATENCY: 0 cycles
cpu0_L1I AVERAGE itMISS LATENCY: 0 cycles
cpu0_L1I AVERAGE dtMISS LATENCY: 0 cycles
cpu0_L1I PAGE CROSSINGS (TLB HIT):         0 
cpu0_L1I PAGE CROSSINGS (TLB MISS):         0 
cpu0_L1I AVERAGE MISS LATENCY: 13.1466 cycles
cpu0_ITLB TOTAL       ACCESS:   28950381  HIT:   26986168  MISS:    1964213  iACCESS:   28950381  iHIT:   26986168  iMISS:    1964213  dACCESS:          0  dHIT:          0  dMISS:          0  itACCESS:          0  itHIT:          0  itMISS:          0  dtACCESS:          0  dtHIT:          0  dtMISS:          0
cpu0_ITLB LOAD         ACCESS:   28950381  HIT:   26986168  MISS:    1964213  iACCESS:   28950381  iHIT:   26986168  iMISS:    1964213  dACCESS:          0  dHIT:          0  dMISS:          0  itACCESS:          0  itHIT:          0  itMISS:          0  dtACCESS:          0  dtHIT:          0  dtMISS:          0
cpu0_ITLB RFO          ACCESS:          0  HIT:          0  MISS:          0  iACCESS:          0  iHIT:          0  iMISS:          0  dACCESS:          0  dHIT:          0  dMISS:          0  itACCESS:          0  itHIT:          0  itMISS:          0  dtACCESS:          0  dtHIT:          0  dtMISS:          0
cpu0_ITLB PREFETCH     ACCESS:          0  HIT:          0  MISS:          0  iACCESS:          0  iHIT:          0  iMISS:          0  dACCESS:          0  dHIT:          0  dMISS:          0  itACCESS:          0  itHIT:          0  itMISS:          0  dtACCESS:          0  dtHIT:          0  dtMISS:          0
cpu0_ITLB WRITE        ACCESS:          0  HIT:          0  MISS:          0  iACCESS:          0  iHIT:          0  iMISS:          0  dACCESS:          0  dHIT:          0  dMISS:          0  itACCESS:          0  itHIT:          0  itMISS:          0  dtACCESS:          0  dtHIT:          0  dtMISS:          0
cpu0_ITLB TRANSLATION  ACCESS:          0  HIT:          0  MISS:          0  iACCESS:          0  iHIT:          0  iMISS:          0  dACCESS:          0  dHIT:          0  dMISS:          0  itACCESS:          0  itHIT:          0  itMISS:          0  dtACCESS:          0  dtHIT:          0  dtMISS:          0
cpu0_ITLB PREFETCH  REQUESTED:          0  ISSUED:          0  CROSSED:          0  USEFUL:     319421  USELESS:      66786
cpu0_ITLB AVERAGE iMISS LATENCY: 2.24113 cycles
cpu0_ITLB AVERAGE dMISS LATENCY: 0 cycles
cpu0_ITLB AVERAGE itMISS LATENCY: 0 cycles
cpu0_ITLB AVERAGE dtMISS LATENCY: 0 cycles
cpu0_ITLB PAGE CROSSINGS (TLB HIT):         0 
cpu0_ITLB PAGE CROSSINGS (TLB MISS):         0 
cpu0_ITLB AVERAGE MISS LATENCY: 2.24113 cycles
cpu0_DTLB TOTAL       ACCESS:   27675876  HIT:   25840566  MISS:    1835310  iACCESS:          0  iHIT:          0  iMISS:          0  dACCESS:   27675876  dHIT:   25840566  dMISS:    1835310  itACCESS:          0  itHIT:          0  itMISS:          0  dtACCESS:          0  dtHIT:          0  dtMISS:          0
cpu0_DTLB LOAD         ACCESS:   27675876  HIT:   25840566  MISS:    1835310  iACCESS:          0  iHIT:          0  iMISS:          0  dACCESS:   27675876  dHIT:   25840566  dMISS:    1835310  itACCESS:          0  itHIT:          0  itMISS:          0  dtACCESS:          0  dtHIT:          0  dtMISS:          0
cpu0_DTLB RFO          ACCESS:          0  HIT:          0  MISS:          0  iACCESS:          0  iHIT:          0  iMISS:          0  dACCESS:          0  dHIT:          0  dMISS:          0  itACCESS:          0  itHIT:          0  itMISS:          0  dtACCESS:          0  dtHIT:          0  dtMISS:          0
cpu0_DTLB PREFETCH     ACCESS:          0  HIT:          0  MISS:          0  iACCESS:          0  iHIT:          0  iMISS:          0  dACCESS:          0  dHIT:          0  dMISS:          0  itACCESS:          0  itHIT:          0  itMISS:          0  dtACCESS:          0  dtHIT:          0  dtMISS:          0
cpu0_DTLB WRITE        ACCESS:          0  HIT:          0  MISS:          0  iACCESS:          0  iHIT:          0  iMISS:          0  dACCESS:          0  dHIT:          0  dMISS:          0  itACCESS:          0  itHIT:          0  itMISS:          0  dtACCESS:          0  dtHIT:          0  dtMISS:          0
cpu0_DTLB TRANSLATION  ACCESS:          0  HIT:          0  MISS:          0  iACCESS:          0  iHIT:          0  iMISS:          0  dACCESS:          0  dHIT:          0  dMISS:          0  itACCESS:          0  itHIT:          0  itMISS:          0  dtACCESS:          0  dtHIT:          0  dtMISS:          0
cpu0_DTLB PREFETCH  REQUESTED:          0  ISSUED:          0  CROSSED:          0  USEFUL:          0  USELESS:          0
cpu0_DTLB AVERAGE iMISS LATENCY: 0 cycles
cpu0_DTLB AVERAGE dMISS LATENCY: 18.3252 cycles
cpu0_DTLB AVERAGE itMISS LATENCY: 0 cycles
cpu0_DTLB AVERAGE dtMISS LATENCY: 0 cycles
cpu0_DTLB PAGE CROSSINGS (TLB HIT):         0 
cpu0_DTLB PAGE CROSSINGS (TLB MISS):         0 
cpu0_DTLB AVERAGE MISS LATENCY: 18.3252 cycles
cpu0_STLB TOTAL       ACCESS:    1498870  HIT:    1349608  MISS:     149262  iACCESS:     386210  iHIT:     376886  iMISS:       9324  dACCESS:    1112660  dHIT:     972722  dMISS:     139938  itACCESS:          0  itHIT:          0  itMISS:          0  dtACCESS:          0  dtHIT:          0  dtMISS:          0
cpu0_STLB LOAD         ACCESS:    1498870  HIT:    1349608  MISS:     149262  iACCESS:     386210  iHIT:     376886  iMISS:       9324  dACCESS:    1112660  dHIT:     972722  dMISS:     139938  itACCESS:          0  itHIT:          0  itMISS:          0  dtACCESS:          0  dtHIT:          0  dtMISS:          0
cpu0_STLB RFO          ACCESS:          0  HIT:          0  MISS:          0  iACCESS:          0  iHIT:          0  iMISS:          0  dACCESS:          0  dHIT:          0  dMISS:          0  itACCESS:          0  itHIT:          0  itMISS:          0  dtACCESS:          0  dtHIT:          0  dtMISS:          0
cpu0_STLB PREFETCH     ACCESS:          0  HIT:          0  MISS:          0  iACCESS:          0  iHIT:          0  iMISS:          0  dACCESS:          0  dHIT:          0  dMISS:          0  itACCESS:          0  itHIT:          0  itMISS:          0  dtACCESS:          0  dtHIT:          0  dtMISS:          0
cpu0_STLB WRITE        ACCESS:          0  HIT:          0  MISS:          0  iACCESS:          0  iHIT:          0  iMISS:          0  dACCESS:          0  dHIT:          0  dMISS:          0  itACCESS:          0  itHIT:          0  itMISS:          0  dtACCESS:          0  dtHIT:          0  dtMISS:          0
cpu0_STLB TRANSLATION  ACCESS:          0  HIT:          0  MISS:          0  iACCESS:          0  iHIT:          0  iMISS:          0  dACCESS:          0  dHIT:          0  dMISS:          0  itACCESS:          0  itHIT:          0  itMISS:          0  dtACCESS:          0  dtHIT:          0  dtMISS:          0
cpu0_STLB PREFETCH  REQUESTED:          0  ISSUED:          0  CROSSED:          0  USEFUL:          0  USELESS:          0
cpu0_STLB AVERAGE iMISS LATENCY: 9.3955 cycles
cpu0_STLB AVERAGE dMISS LATENCY: 165.612 cycles
cpu0_STLB AVERAGE itMISS LATENCY: 0 cycles
cpu0_STLB AVERAGE dtMISS LATENCY: 0 cycles
cpu0_STLB PAGE CROSSINGS (TLB HIT):         0 
cpu0_STLB PAGE CROSSINGS (TLB MISS):         0 
cpu0_STLB AVERAGE MISS LATENCY: 175.008 cycles
cpu0_L1D TOTAL       ACCESS:   41426485  HIT:   37968696  MISS:    3457789  iACCESS:          0  iHIT:          0  iMISS:          0  dACCESS:   41204148  dHIT:   37954410  dMISS:    3249738  itACCESS:      11647  itHIT:       1106  itMISS:      10541  dtACCESS:     210690  dtHIT:      13180  dtMISS:     197510
cpu0_L1D LOAD         ACCESS:   18926535  HIT:   17451233  MISS:    1475302  iACCESS:          0  iHIT:          0  iMISS:          0  dACCESS:   18926535  dHIT:   17451233  dMISS:    1475302  itACCESS:          0  itHIT:          0  itMISS:          0  dtACCESS:          0  dtHIT:          0  dtMISS:          0
cpu0_L1D RFO          ACCESS:          0  HIT:          0  MISS:          0  iACCESS:          0  iHIT:          0  iMISS:          0  dACCESS:          0  dHIT:          0  dMISS:          0  itACCESS:          0  itHIT:          0  itMISS:          0  dtACCESS:          0  dtHIT:          0  dtMISS:          0
cpu0_L1D PREFETCH     ACCESS:   12098144  HIT:   10755611  MISS:    1342533  iACCESS:          0  iHIT:          0  iMISS:          0  dACCESS:   12098144  dHIT:   10755611  dMISS:    1342533  itACCESS:          0  itHIT:          0  itMISS:          0  dtACCESS:          0  dtHIT:          0  dtMISS:          0
cpu0_L1D WRITE        ACCESS:   10179469  HIT:    9747566  MISS:     431903  iACCESS:          0  iHIT:          0  iMISS:          0  dACCESS:   10179469  dHIT:    9747566  dMISS:     431903  itACCESS:          0  itHIT:          0  itMISS:          0  dtACCESS:          0  dtHIT:          0  dtMISS:          0
cpu0_L1D TRANSLATION  ACCESS:     222337  HIT:      14286  MISS:     208051  iACCESS:          0  iHIT:          0  iMISS:          0  dACCESS:          0  dHIT:          0  dMISS:          0  itACCESS:      11647  itHIT:       1106  itMISS:      10541  dtACCESS:     210690  dtHIT:      13180  dtMISS:     197510
cpu0_L1D PREFETCH  REQUESTED:   18926535  ISSUED:   16867568  CROSSED:          0  USEFUL:     303908  USELESS:     694308
cpu0_L1D AVERAGE iMISS LATENCY: 0 cycles
cpu0_L1D AVERAGE dMISS LATENCY: 33.8709 cycles
cpu0_L1D AVERAGE itMISS LATENCY: 0.37514 cycles
cpu0_L1D AVERAGE dtMISS LATENCY: 6.30637 cycles
cpu0_L1D PAGE CROSSINGS (TLB HIT):         0 
cpu0_L1D PAGE CROSSINGS (TLB MISS):         0 
cpu0_L1D AVERAGE MISS LATENCY: 40.5524 cycles
cpu0_L2C TOTAL       ACCESS:    6875414  HIT:    3951778  MISS:    2923636  iACCESS:    3256161  iHIT:    2152242  iMISS:    1103919  dACCESS:    3422825  dHIT:    1763135  dMISS:    1659690  itACCESS:      10421  itHIT:       1857  itMISS:       8564  dtACCESS:     186007  dtHIT:      34544  dtMISS:     151463
cpu0_L2C LOAD         ACCESS:    1707393  HIT:    1006642  MISS:     700751  iACCESS:     786358  iHIT:     543411  iMISS:     242947  dACCESS:     921035  dHIT:     463231  dMISS:     457804  itACCESS:          0  itHIT:          0  itMISS:          0  dtACCESS:          0  dtHIT:          0  dtMISS:          0
cpu0_L2C RFO          ACCESS:     155674  HIT:      70498  MISS:      85176  iACCESS:          0  iHIT:          0  iMISS:          0  dACCESS:     155674  dHIT:      70498  dMISS:      85176  itACCESS:          0  itHIT:          0  itMISS:          0  dtACCESS:          0  dtHIT:          0  dtMISS:          0
cpu0_L2C PREFETCH     ACCESS:    4534063  HIT:    2557511  MISS:    1976552  iACCESS:    2469803  iHIT:    1608831  iMISS:     860972  dACCESS:    2064260  dHIT:     948680  dMISS:    1115580  itACCESS:          0  itHIT:          0  itMISS:          0  dtACCESS:          0  dtHIT:          0  dtMISS:          0
cpu0_L2C WRITE        ACCESS:     281856  HIT:     280726  MISS:       1130  iACCESS:          0  iHIT:          0  iMISS:          0  dACCESS:     281856  dHIT:     280726  dMISS:       1130  itACCESS:          0  itHIT:          0  itMISS:          0  dtACCESS:          0  dtHIT:          0  dtMISS:          0
cpu0_L2C TRANSLATION  ACCESS:     196428  HIT:      36401  MISS:     160027  iACCESS:          0  iHIT:          0  iMISS:          0  dACCESS:          0  dHIT:          0  dMISS:          0  itACCESS:      10421  itHIT:       1857  itMISS:       8564  dtACCESS:     186007  dtHIT:      34544  dtMISS:     151463
cpu0_L2C PREFETCH  REQUESTED:    1308078  ISSUED:    1308078  CROSSED:          0  USEFUL:     307246  USELESS:     226646
cpu0_L2C AVERAGE iMISS LATENCY: 24.8056 cycles
cpu0_L2C AVERAGE dMISS LATENCY: 46.7711 cycles
cpu0_L2C AVERAGE itMISS LATENCY: 0.408581 cycles
cpu0_L2C AVERAGE dtMISS LATENCY: 6.8296 cycles
cpu0_L2C PAGE CROSSINGS (TLB HIT):         0 
cpu0_L2C PAGE CROSSINGS (TLB MISS):         0 
cpu0_L2C AVERAGE MISS LATENCY: 78.8149 cycles
LLC TOTAL       ACCESS:    2954751  HIT:    1842788  MISS:    1111963  iACCESS:    1051553  iHIT:     693947  iMISS:     357606  dACCESS:    1743171  dHIT:    1088798  dMISS:     654373  itACCESS:       8564  itHIT:       2687  itMISS:       5877  dtACCESS:     151463  dtHIT:      57356  dtMISS:      94107
LLC LOAD         ACCESS:     699524  HIT:     455633  MISS:     243891  iACCESS:     241957  iHIT:     165454  iMISS:      76503  dACCESS:     457567  dHIT:     290179  dMISS:     167388  itACCESS:          0  itHIT:          0  itMISS:          0  dtACCESS:          0  dtHIT:          0  dtMISS:          0
LLC RFO          ACCESS:      85167  HIT:      43538  MISS:      41629  iACCESS:          0  iHIT:          0  iMISS:          0  dACCESS:      85167  dHIT:      43538  dMISS:      41629  itACCESS:          0  itHIT:          0  itMISS:          0  dtACCESS:          0  dtHIT:          0  dtMISS:          0
LLC PREFETCH     ACCESS:    1872620  HIT:    1151894  MISS:     720726  iACCESS:     809596  iHIT:     528493  iMISS:     281103  dACCESS:    1063024  dHIT:     623401  dMISS:     439623  itACCESS:          0  itHIT:          0  itMISS:          0  dtACCESS:          0  dtHIT:          0  dtMISS:          0
LLC WRITE        ACCESS:     137413  HIT:     131680  MISS:       5733  iACCESS:          0  iHIT:          0  iMISS:          0  dACCESS:     137413  dHIT:     131680  dMISS:       5733  itACCESS:          0  itHIT:          0  itMISS:          0  dtACCESS:          0  dtHIT:          0  dtMISS:          0
LLC TRANSLATION  ACCESS:     160027  HIT:      60043  MISS:      99984  iACCESS:          0  iHIT:          0  iMISS:          0  dACCESS:          0  dHIT:          0  dMISS:          0  itACCESS:       8564  itHIT:       2687  itMISS:       5877  dtACCESS:     151463  dtHIT:      57356  dtMISS:      94107
LLC PREFETCH  REQUESTED:          0  ISSUED:          0  CROSSED:          0  USEFUL:          0  USELESS:          0
LLC AVERAGE iMISS LATENCY: 46.8595 cycles
LLC AVERAGE dMISS LATENCY: 95.2457 cycles
LLC AVERAGE itMISS LATENCY: 0.92313 cycles
LLC AVERAGE dtMISS LATENCY: 15.2915 cycles
LLC PAGE CROSSINGS (TLB HIT):         0 
LLC PAGE CROSSINGS (TLB MISS):         0 
LLC AVERAGE MISS LATENCY: 158.32 cycles

PageTableWalker TOTAL       ACCESS:      73610  
PageTableWalker AVERAGE LATENCY: 5.70068 cycles
PageTableWalker TOTAL LATENCY: 419627 cycles

DRAM Statistics
Channel 0
 RQ ROW_BUFFER_HIT:     311599
  ROW_BUFFER_MISS:     794502
 AVG DBUS CONGESTED CYCLE:    3.62759
 WQ ROW_BUFFER_HIT:      22279
  ROW_BUFFER_MISS:      22147  FULL:          0

