last_page:0x200000000000000
VMEM_RES_CAP:0x100000
PAGE_SIZE:4096
LOG2_PAGE_SIZE:12
LOG2_PAGE_TABLE_SIZE:9
page_table_levels:5
WARNING: physical memory size is smaller than virtual memory size
FDiP enabled with aggresivity 16

*** ChampSim Multicore Out-of-Order Simulator ***

Warmup Instructions: 50000000
Simulation Instructions: 100000000
Number of CPUs: 1
Small page size: 4096
Large page size: 2097152

CPU 0 Bimodal branch predictor
Basic BTB sets: 1024 ways: 8 indirect buffer size: 4096 RAS size: 64
Instruction page size distrubution: 0
Loading instruction page size distribution from /home/bsc/bsc018186/scratch/itp_asplos25_AE/dump/srv364_ap.pdst
Data page size distrubution: 0
Loading data page size distribution from /home/bsc/bsc018186/scratch/itp_asplos25_AE/dump/srv364_ap.pdst
cpu0_L2C IP-based stride prefetcher
cpu0_L2C is using PTP replacement policy:
	TLB_STRESS_THRESHOLD:0
	PTE_EVICTION_RATIO:0
cpu0_L1D next line prefetcher
cpu0_L1I next line prefetcher
Off-chip DRAM Size: 4 GiB Channels: 1 Width: 64-bit Data Rate: 3200 MT/s
Heartbeat CPU 0 instructions: 10000002 cycles: 2500194 heartbeat IPC: 3.9997 cumulative IPC: 3.9997 (Simulation time: 0 hr 0 min 38 sec) 
Heartbeat CPU 0 instructions: 20000000 cycles: 5000226 heartbeat IPC: 3.99995 cumulative IPC: 3.99982 (Simulation time: 0 hr 1 min 18 sec) 
Heartbeat CPU 0 instructions: 30000003 cycles: 7500229 heartbeat IPC: 4 cumulative IPC: 3.99988 (Simulation time: 0 hr 1 min 59 sec) 
Heartbeat CPU 0 instructions: 40000001 cycles: 10000246 heartbeat IPC: 3.99998 cumulative IPC: 3.99991 (Simulation time: 0 hr 2 min 41 sec) 
Heartbeat CPU 0 instructions: 50000002 cycles: 12500264 heartbeat IPC: 3.99998 cumulative IPC: 3.99992 (Simulation time: 0 hr 3 min 22 sec) 
Warmup finished CPU 0 instructions: 50000002 cycles: 12500265 cumulative IPC: 3.99992 (Simulation time: 0 hr 3 min 22 sec) 

Warmup complete CPU 0 instructions: 50000002 cycles: 12500265 (Simulation time: 0 hr 3 min 22 sec) 

Heartbeat CPU 0 instructions: 60000003 cycles: 30101388 heartbeat IPC: 0.568146 cumulative IPC: 0.568146 (Simulation time: 0 hr 4 min 32 sec) 
Heartbeat CPU 0 instructions: 70000002 cycles: 48579576 heartbeat IPC: 0.541179 cumulative IPC: 0.554335 (Simulation time: 0 hr 5 min 42 sec) 
Heartbeat CPU 0 instructions: 80000003 cycles: 67368933 heartbeat IPC: 0.532217 cumulative IPC: 0.546761 (Simulation time: 0 hr 6 min 52 sec) 
Heartbeat CPU 0 instructions: 90000000 cycles: 86341636 heartbeat IPC: 0.527073 cumulative IPC: 0.541702 (Simulation time: 0 hr 8 min 3 sec) 
Heartbeat CPU 0 instructions: 100000004 cycles: 101584622 heartbeat IPC: 0.65604 cumulative IPC: 0.561266 (Simulation time: 0 hr 9 min 10 sec) 
*** Reached end of trace: /gpfs/projects/bsc18/MN4/bsc18/romol/ChampSim/traces/qualcomm_srv/srv364_ap.champsimtrace.xz
Heartbeat CPU 0 instructions: 110000000 cycles: 117474791 heartbeat IPC: 0.62932 cumulative IPC: 0.571568 (Simulation time: 0 hr 10 min 17 sec) 
Heartbeat CPU 0 instructions: 120000004 cycles: 137864710 heartbeat IPC: 0.490439 cumulative IPC: 0.558373 (Simulation time: 0 hr 11 min 29 sec) 
Heartbeat CPU 0 instructions: 130000001 cycles: 158726663 heartbeat IPC: 0.479342 cumulative IPC: 0.547097 (Simulation time: 0 hr 12 min 42 sec) 
Heartbeat CPU 0 instructions: 140000000 cycles: 179077687 heartbeat IPC: 0.491376 cumulative IPC: 0.54029 (Simulation time: 0 hr 13 min 54 sec) 
Heartbeat CPU 0 instructions: 150000003 cycles: 199334756 heartbeat IPC: 0.493655 cumulative IPC: 0.535234 (Simulation time: 0 hr 15 min 6 sec) 
Simulation finished CPU 0 instructions: 100000001 cycles: 186834492 cumulative IPC: 0.535234 (Simulation time: 0 hr 15 min 6 sec) 

Simulation complete CPU 0 instructions: 100000001 cycles: 186834492 (Simulation time: 0 hr 15 min 6 sec) 


ChampSim completed all CPUs

Saving instructions large page distribution to /home/bsc/bsc018186/scratch/itp_asplos25_AE/dump/srv364_ap.pdst...
Saving data large page distribution to /home/bsc/bsc018186/scratch/itp_asplos25_AE/dump/srv364_ap.pdst...
=== Simulation ===
CPU 0 runs /gpfs/projects/bsc18/MN4/bsc18/romol/ChampSim/traces/qualcomm_srv/srv364_ap.champsimtrace.xz

Region of Interest Statistics

CPU 0 cumulative IPC: 0.535234 instructions: 100000001 cycles: 186834492
CPU 0 Branch Prediction Accuracy: 81.9892% MPKI: 33.8614 Average ROB Occupancy at Mispredict: 11.4256
Branch type MPKI
BRANCH_DIRECT_JUMP: 1.23984
BRANCH_INDIRECT: 17.0614
BRANCH_CONDITIONAL: 10.9182
BRANCH_DIRECT_CALL: 2.32983
BRANCH_INDIRECT_CALL: 0.68171
BRANCH_RETURN: 1.63037

Instructions large pages: 0
Instructions small pages: 1091
Large page distribution for instructions: 0%

Data large pages: 0
Data small pages: 4518
Large page distribution for data: 0%

cpu0_L1I TOTAL       ACCESS:   35155010  HIT:   27502154  MISS:    7652856  iACCESS:   35155010  iHIT:   27502154  iMISS:    7652856  dACCESS:          0  dHIT:          0  dMISS:          0  itACCESS:          0  itHIT:          0  itMISS:          0  dtACCESS:          0  dtHIT:          0  dtMISS:          0
cpu0_L1I LOAD         ACCESS:    9678153  HIT:    7580799  MISS:    2097354  iACCESS:    9678153  iHIT:    7580799  iMISS:    2097354  dACCESS:          0  dHIT:          0  dMISS:          0  itACCESS:          0  itHIT:          0  itMISS:          0  dtACCESS:          0  dtHIT:          0  dtMISS:          0
cpu0_L1I RFO          ACCESS:          0  HIT:          0  MISS:          0  iACCESS:          0  iHIT:          0  iMISS:          0  dACCESS:          0  dHIT:          0  dMISS:          0  itACCESS:          0  itHIT:          0  itMISS:          0  dtACCESS:          0  dtHIT:          0  dtMISS:          0
cpu0_L1I PREFETCH     ACCESS:   25476857  HIT:   19921355  MISS:    5555502  iACCESS:   25476857  iHIT:   19921355  iMISS:    5555502  dACCESS:          0  dHIT:          0  dMISS:          0  itACCESS:          0  itHIT:          0  itMISS:          0  dtACCESS:          0  dtHIT:          0  dtMISS:          0
cpu0_L1I WRITE        ACCESS:          0  HIT:          0  MISS:          0  iACCESS:          0  iHIT:          0  iMISS:          0  dACCESS:          0  dHIT:          0  dMISS:          0  itACCESS:          0  itHIT:          0  itMISS:          0  dtACCESS:          0  dtHIT:          0  dtMISS:          0
cpu0_L1I TRANSLATION  ACCESS:          0  HIT:          0  MISS:          0  iACCESS:          0  iHIT:          0  iMISS:          0  dACCESS:          0  dHIT:          0  dMISS:          0  itACCESS:          0  itHIT:          0  itMISS:          0  dtACCESS:          0  dtHIT:          0  dtMISS:          0
cpu0_L1I PREFETCH  REQUESTED:   27598962  ISSUED:   27598050  CROSSED:          0  USEFUL:    1847369  USELESS:     610577
cpu0_L1I AVERAGE iMISS LATENCY: 19.8511 cycles
cpu0_L1I AVERAGE dMISS LATENCY: 0 cycles
cpu0_L1I AVERAGE itMISS LATENCY: 0 cycles
cpu0_L1I AVERAGE dtMISS LATENCY: 0 cycles
cpu0_L1I PAGE CROSSINGS (TLB HIT):         0 
cpu0_L1I PAGE CROSSINGS (TLB MISS):         0 
cpu0_L1I AVERAGE MISS LATENCY: 19.8511 cycles
cpu0_ITLB TOTAL       ACCESS:   29527288  HIT:   27718864  MISS:    1808424  iACCESS:   29527288  iHIT:   27718864  iMISS:    1808424  dACCESS:          0  dHIT:          0  dMISS:          0  itACCESS:          0  itHIT:          0  itMISS:          0  dtACCESS:          0  dtHIT:          0  dtMISS:          0
cpu0_ITLB LOAD         ACCESS:   29527288  HIT:   27718864  MISS:    1808424  iACCESS:   29527288  iHIT:   27718864  iMISS:    1808424  dACCESS:          0  dHIT:          0  dMISS:          0  itACCESS:          0  itHIT:          0  itMISS:          0  dtACCESS:          0  dtHIT:          0  dtMISS:          0
cpu0_ITLB RFO          ACCESS:          0  HIT:          0  MISS:          0  iACCESS:          0  iHIT:          0  iMISS:          0  dACCESS:          0  dHIT:          0  dMISS:          0  itACCESS:          0  itHIT:          0  itMISS:          0  dtACCESS:          0  dtHIT:          0  dtMISS:          0
cpu0_ITLB PREFETCH     ACCESS:          0  HIT:          0  MISS:          0  iACCESS:          0  iHIT:          0  iMISS:          0  dACCESS:          0  dHIT:          0  dMISS:          0  itACCESS:          0  itHIT:          0  itMISS:          0  dtACCESS:          0  dtHIT:          0  dtMISS:          0
cpu0_ITLB WRITE        ACCESS:          0  HIT:          0  MISS:          0  iACCESS:          0  iHIT:          0  iMISS:          0  dACCESS:          0  dHIT:          0  dMISS:          0  itACCESS:          0  itHIT:          0  itMISS:          0  dtACCESS:          0  dtHIT:          0  dtMISS:          0
cpu0_ITLB TRANSLATION  ACCESS:          0  HIT:          0  MISS:          0  iACCESS:          0  iHIT:          0  iMISS:          0  dACCESS:          0  dHIT:          0  dMISS:          0  itACCESS:          0  itHIT:          0  itMISS:          0  dtACCESS:          0  dtHIT:          0  dtMISS:          0
cpu0_ITLB PREFETCH  REQUESTED:          0  ISSUED:          0  CROSSED:          0  USEFUL:     308890  USELESS:      57258
cpu0_ITLB AVERAGE iMISS LATENCY: 5.40291 cycles
cpu0_ITLB AVERAGE dMISS LATENCY: 0 cycles
cpu0_ITLB AVERAGE itMISS LATENCY: 0 cycles
cpu0_ITLB AVERAGE dtMISS LATENCY: 0 cycles
cpu0_ITLB PAGE CROSSINGS (TLB HIT):         0 
cpu0_ITLB PAGE CROSSINGS (TLB MISS):         0 
cpu0_ITLB AVERAGE MISS LATENCY: 5.40291 cycles
cpu0_DTLB TOTAL       ACCESS:   29027991  HIT:   25630361  MISS:    3397630  iACCESS:          0  iHIT:          0  iMISS:          0  dACCESS:   29027991  dHIT:   25630361  dMISS:    3397630  itACCESS:          0  itHIT:          0  itMISS:          0  dtACCESS:          0  dtHIT:          0  dtMISS:          0
cpu0_DTLB LOAD         ACCESS:   29027991  HIT:   25630361  MISS:    3397630  iACCESS:          0  iHIT:          0  iMISS:          0  dACCESS:   29027991  dHIT:   25630361  dMISS:    3397630  itACCESS:          0  itHIT:          0  itMISS:          0  dtACCESS:          0  dtHIT:          0  dtMISS:          0
cpu0_DTLB RFO          ACCESS:          0  HIT:          0  MISS:          0  iACCESS:          0  iHIT:          0  iMISS:          0  dACCESS:          0  dHIT:          0  dMISS:          0  itACCESS:          0  itHIT:          0  itMISS:          0  dtACCESS:          0  dtHIT:          0  dtMISS:          0
cpu0_DTLB PREFETCH     ACCESS:          0  HIT:          0  MISS:          0  iACCESS:          0  iHIT:          0  iMISS:          0  dACCESS:          0  dHIT:          0  dMISS:          0  itACCESS:          0  itHIT:          0  itMISS:          0  dtACCESS:          0  dtHIT:          0  dtMISS:          0
cpu0_DTLB WRITE        ACCESS:          0  HIT:          0  MISS:          0  iACCESS:          0  iHIT:          0  iMISS:          0  dACCESS:          0  dHIT:          0  dMISS:          0  itACCESS:          0  itHIT:          0  itMISS:          0  dtACCESS:          0  dtHIT:          0  dtMISS:          0
cpu0_DTLB TRANSLATION  ACCESS:          0  HIT:          0  MISS:          0  iACCESS:          0  iHIT:          0  iMISS:          0  dACCESS:          0  dHIT:          0  dMISS:          0  itACCESS:          0  itHIT:          0  itMISS:          0  dtACCESS:          0  dtHIT:          0  dtMISS:          0
cpu0_DTLB PREFETCH  REQUESTED:          0  ISSUED:          0  CROSSED:          0  USEFUL:          0  USELESS:          0
cpu0_DTLB AVERAGE iMISS LATENCY: 0 cycles
cpu0_DTLB AVERAGE dMISS LATENCY: 9.48546 cycles
cpu0_DTLB AVERAGE itMISS LATENCY: 0 cycles
cpu0_DTLB AVERAGE dtMISS LATENCY: 0 cycles
cpu0_DTLB PAGE CROSSINGS (TLB HIT):         0 
cpu0_DTLB PAGE CROSSINGS (TLB MISS):         0 
cpu0_DTLB AVERAGE MISS LATENCY: 9.48546 cycles
cpu0_STLB TOTAL       ACCESS:    2259362  HIT:    2036140  MISS:     223222  iACCESS:     366153  iHIT:     281402  iMISS:      84751  dACCESS:    1893209  dHIT:    1754738  dMISS:     138471  itACCESS:          0  itHIT:          0  itMISS:          0  dtACCESS:          0  dtHIT:          0  dtMISS:          0
cpu0_STLB LOAD         ACCESS:    2259362  HIT:    2036140  MISS:     223222  iACCESS:     366153  iHIT:     281402  iMISS:      84751  dACCESS:    1893209  dHIT:    1754738  dMISS:     138471  itACCESS:          0  itHIT:          0  itMISS:          0  dtACCESS:          0  dtHIT:          0  dtMISS:          0
cpu0_STLB RFO          ACCESS:          0  HIT:          0  MISS:          0  iACCESS:          0  iHIT:          0  iMISS:          0  dACCESS:          0  dHIT:          0  dMISS:          0  itACCESS:          0  itHIT:          0  itMISS:          0  dtACCESS:          0  dtHIT:          0  dtMISS:          0
cpu0_STLB PREFETCH     ACCESS:          0  HIT:          0  MISS:          0  iACCESS:          0  iHIT:          0  iMISS:          0  dACCESS:          0  dHIT:          0  dMISS:          0  itACCESS:          0  itHIT:          0  itMISS:          0  dtACCESS:          0  dtHIT:          0  dtMISS:          0
cpu0_STLB WRITE        ACCESS:          0  HIT:          0  MISS:          0  iACCESS:          0  iHIT:          0  iMISS:          0  dACCESS:          0  dHIT:          0  dMISS:          0  itACCESS:          0  itHIT:          0  itMISS:          0  dtACCESS:          0  dtHIT:          0  dtMISS:          0
cpu0_STLB TRANSLATION  ACCESS:          0  HIT:          0  MISS:          0  iACCESS:          0  iHIT:          0  iMISS:          0  dACCESS:          0  dHIT:          0  dMISS:          0  itACCESS:          0  itHIT:          0  itMISS:          0  dtACCESS:          0  dtHIT:          0  dtMISS:          0
cpu0_STLB PREFETCH  REQUESTED:          0  ISSUED:          0  CROSSED:          0  USEFUL:          0  USELESS:          0
cpu0_STLB AVERAGE iMISS LATENCY: 30.6668 cycles
cpu0_STLB AVERAGE dMISS LATENCY: 75.9505 cycles
cpu0_STLB AVERAGE itMISS LATENCY: 0 cycles
cpu0_STLB AVERAGE dtMISS LATENCY: 0 cycles
cpu0_STLB PAGE CROSSINGS (TLB HIT):         0 
cpu0_STLB PAGE CROSSINGS (TLB MISS):         0 
cpu0_STLB AVERAGE MISS LATENCY: 106.618 cycles
cpu0_L1D TOTAL       ACCESS:   44815540  HIT:   38562784  MISS:    6252756  iACCESS:          0  iHIT:          0  iMISS:          0  dACCESS:   44535082  dHIT:   38536299  dMISS:    5998783  itACCESS:      90879  itHIT:      14791  itMISS:      76088  dtACCESS:     189579  dtHIT:      11694  dtMISS:     177885
cpu0_L1D LOAD         ACCESS:   21168524  HIT:   17869274  MISS:    3299250  iACCESS:          0  iHIT:          0  iMISS:          0  dACCESS:   21168524  dHIT:   17869274  dMISS:    3299250  itACCESS:          0  itHIT:          0  itMISS:          0  dtACCESS:          0  dtHIT:          0  dtMISS:          0
cpu0_L1D RFO          ACCESS:          0  HIT:          0  MISS:          0  iACCESS:          0  iHIT:          0  iMISS:          0  dACCESS:          0  dHIT:          0  dMISS:          0  itACCESS:          0  itHIT:          0  itMISS:          0  dtACCESS:          0  dtHIT:          0  dtMISS:          0
cpu0_L1D PREFETCH     ACCESS:   13436415  HIT:   11223988  MISS:    2212427  iACCESS:          0  iHIT:          0  iMISS:          0  dACCESS:   13436415  dHIT:   11223988  dMISS:    2212427  itACCESS:          0  itHIT:          0  itMISS:          0  dtACCESS:          0  dtHIT:          0  dtMISS:          0
cpu0_L1D WRITE        ACCESS:    9930143  HIT:    9443037  MISS:     487106  iACCESS:          0  iHIT:          0  iMISS:          0  dACCESS:    9930143  dHIT:    9443037  dMISS:     487106  itACCESS:          0  itHIT:          0  itMISS:          0  dtACCESS:          0  dtHIT:          0  dtMISS:          0
cpu0_L1D TRANSLATION  ACCESS:     280458  HIT:      26485  MISS:     253973  iACCESS:          0  iHIT:          0  iMISS:          0  dACCESS:          0  dHIT:          0  dMISS:          0  itACCESS:      90879  itHIT:      14791  itMISS:      76088  dtACCESS:     189579  dtHIT:      11694  dtMISS:     177885
cpu0_L1D PREFETCH  REQUESTED:   21168524  ISSUED:   17383608  CROSSED:          0  USEFUL:     290882  USELESS:     740230
cpu0_L1D AVERAGE iMISS LATENCY: 0 cycles
cpu0_L1D AVERAGE dMISS LATENCY: 29.857 cycles
cpu0_L1D AVERAGE itMISS LATENCY: 0.976934 cycles
cpu0_L1D AVERAGE dtMISS LATENCY: 2.41688 cycles
cpu0_L1D PAGE CROSSINGS (TLB HIT):         0 
cpu0_L1D PAGE CROSSINGS (TLB MISS):         0 
cpu0_L1D AVERAGE MISS LATENCY: 33.2508 cycles
cpu0_L2C TOTAL       ACCESS:    7933294  HIT:    2399971  MISS:    5533323  iACCESS:    3133777  iHIT:    1066438  iMISS:    2067339  dACCESS:    4550468  dHIT:    1203430  dMISS:    3347038  itACCESS:      76088  itHIT:      40643  itMISS:      35445  dtACCESS:     172961  dtHIT:      89460  dtMISS:      83501
cpu0_L2C LOAD         ACCESS:    2630628  HIT:     772084  MISS:    1858544  iACCESS:     710851  iHIT:     210066  iMISS:     500785  dACCESS:    1919777  dHIT:     562018  dMISS:    1357759  itACCESS:          0  itHIT:          0  itMISS:          0  dtACCESS:          0  dtHIT:          0  dtMISS:          0
cpu0_L2C RFO          ACCESS:     168138  HIT:      23516  MISS:     144622  iACCESS:          0  iHIT:          0  iMISS:          0  dACCESS:     168138  dHIT:      23516  dMISS:     144622  itACCESS:          0  itHIT:          0  itMISS:          0  dtACCESS:          0  dtHIT:          0  dtMISS:          0
cpu0_L2C PREFETCH     ACCESS:    4626463  HIT:    1350987  MISS:    3275476  iACCESS:    2422926  iHIT:     856372  iMISS:    1566554  dACCESS:    2203537  dHIT:     494615  dMISS:    1708922  itACCESS:          0  itHIT:          0  itMISS:          0  dtACCESS:          0  dtHIT:          0  dtMISS:          0
cpu0_L2C WRITE        ACCESS:     259016  HIT:     123281  MISS:     135735  iACCESS:          0  iHIT:          0  iMISS:          0  dACCESS:     259016  dHIT:     123281  dMISS:     135735  itACCESS:          0  itHIT:          0  itMISS:          0  dtACCESS:          0  dtHIT:          0  dtMISS:          0
cpu0_L2C TRANSLATION  ACCESS:     249049  HIT:     130103  MISS:     118946  iACCESS:          0  iHIT:          0  iMISS:          0  dACCESS:          0  dHIT:          0  dMISS:          0  itACCESS:      76088  itHIT:      40643  itMISS:      35445  dtACCESS:     172961  dtHIT:      89460  dtMISS:      83501
cpu0_L2C PREFETCH  REQUESTED:    1412896  ISSUED:    1412613  CROSSED:          0  USEFUL:     372888  USELESS:     375291
cpu0_L2C AVERAGE iMISS LATENCY: 22.4847 cycles
cpu0_L2C AVERAGE dMISS LATENCY: 39.6455 cycles
cpu0_L2C AVERAGE itMISS LATENCY: 0.973365 cycles
cpu0_L2C AVERAGE dtMISS LATENCY: 2.43344 cycles
cpu0_L2C PAGE CROSSINGS (TLB HIT):         0 
cpu0_L2C PAGE CROSSINGS (TLB MISS):         0 
cpu0_L2C AVERAGE MISS LATENCY: 65.537 cycles
LLC TOTAL       ACCESS:    5413190  HIT:    3758936  MISS:    1654254  iACCESS:    1992067  iHIT:    1402700  iMISS:     589367  dACCESS:    3302177  dHIT:    2327308  dMISS:     974869  itACCESS:      35445  itHIT:       8621  itMISS:      26824  dtACCESS:      83501  dtHIT:      20307  dtMISS:      63194
LLC LOAD         ACCESS:    1852671  HIT:    1484867  MISS:     367804  iACCESS:     499404  iHIT:     376090  iMISS:     123314  dACCESS:    1353267  dHIT:    1108777  dMISS:     244490  itACCESS:          0  itHIT:          0  itMISS:          0  dtACCESS:          0  dtHIT:          0  dtMISS:          0
LLC RFO          ACCESS:     144612  HIT:      80442  MISS:      64170  iACCESS:          0  iHIT:          0  iMISS:          0  dACCESS:     144612  dHIT:      80442  dMISS:      64170  itACCESS:          0  itHIT:          0  itMISS:          0  dtACCESS:          0  dtHIT:          0  dtMISS:          0
LLC PREFETCH     ACCESS:    3094221  HIT:    1964451  MISS:    1129770  iACCESS:    1492663  iHIT:    1026610  iMISS:     466053  dACCESS:    1601558  dHIT:     937841  dMISS:     663717  itACCESS:          0  itHIT:          0  itMISS:          0  dtACCESS:          0  dtHIT:          0  dtMISS:          0
LLC WRITE        ACCESS:     202740  HIT:     200248  MISS:       2492  iACCESS:          0  iHIT:          0  iMISS:          0  dACCESS:     202740  dHIT:     200248  dMISS:       2492  itACCESS:          0  itHIT:          0  itMISS:          0  dtACCESS:          0  dtHIT:          0  dtMISS:          0
LLC TRANSLATION  ACCESS:     118946  HIT:      28928  MISS:      90018  iACCESS:          0  iHIT:          0  iMISS:          0  dACCESS:          0  dHIT:          0  dMISS:          0  itACCESS:      35445  itHIT:       8621  itMISS:      26824  dtACCESS:      83501  dtHIT:      20307  dtMISS:      63194
LLC PREFETCH  REQUESTED:          0  ISSUED:          0  CROSSED:          0  USEFUL:          0  USELESS:          0
LLC AVERAGE iMISS LATENCY: 51.8379 cycles
LLC AVERAGE dMISS LATENCY: 97.0697 cycles
LLC AVERAGE itMISS LATENCY: 2.83395 cycles
LLC AVERAGE dtMISS LATENCY: 7.14667 cycles
LLC PAGE CROSSINGS (TLB HIT):         0 
LLC PAGE CROSSINGS (TLB MISS):         0 
LLC AVERAGE MISS LATENCY: 158.889 cycles

PageTableWalker TOTAL       ACCESS:     120951  
PageTableWalker AVERAGE LATENCY: 3.78026 cycles
PageTableWalker TOTAL LATENCY: 457226 cycles

DRAM Statistics
Channel 0
 RQ ROW_BUFFER_HIT:     490282
  ROW_BUFFER_MISS:    1149630
 AVG DBUS CONGESTED CYCLE:    3.64284
 WQ ROW_BUFFER_HIT:      38673
  ROW_BUFFER_MISS:      31209  FULL:          0

