last_page:0x200000000000000
VMEM_RES_CAP:0x100000
PAGE_SIZE:4096
LOG2_PAGE_SIZE:12
LOG2_PAGE_TABLE_SIZE:9
page_table_levels:5
WARNING: physical memory size is smaller than virtual memory size
FDiP enabled with aggresivity 16

*** ChampSim Multicore Out-of-Order Simulator ***

Warmup Instructions: 50000000
Simulation Instructions: 100000000
Number of CPUs: 1
Small page size: 4096
Large page size: 2097152

CPU 0 Bimodal branch predictor
Basic BTB sets: 1024 ways: 8 indirect buffer size: 4096 RAS size: 64
Instruction page size distrubution: 0
Loading instruction page size distribution from /home/bsc/bsc018186/scratch/itp_asplos25_AE/dump/srv393_ap.pdst
Data page size distrubution: 0
Loading data page size distribution from /home/bsc/bsc018186/scratch/itp_asplos25_AE/dump/srv393_ap.pdst
cpu0_L2C IP-based stride prefetcher
cpu0_L1D next line prefetcher
CHiRPing...
cpu0_L1I next line prefetcher
Off-chip DRAM Size: 4 GiB Channels: 1 Width: 64-bit Data Rate: 3200 MT/s
Heartbeat CPU 0 instructions: 10000000 cycles: 2500156 heartbeat IPC: 3.99976 cumulative IPC: 3.99976 (Simulation time: 0 hr 0 min 39 sec) 
Heartbeat CPU 0 instructions: 20000003 cycles: 5000340 heartbeat IPC: 3.99971 cumulative IPC: 3.99973 (Simulation time: 0 hr 1 min 20 sec) 
Heartbeat CPU 0 instructions: 30000003 cycles: 7500373 heartbeat IPC: 3.99995 cumulative IPC: 3.99981 (Simulation time: 0 hr 2 min 1 sec) 
Heartbeat CPU 0 instructions: 40000000 cycles: 10000470 heartbeat IPC: 3.99985 cumulative IPC: 3.99982 (Simulation time: 0 hr 2 min 43 sec) 
Heartbeat CPU 0 instructions: 50000000 cycles: 12500610 heartbeat IPC: 3.99978 cumulative IPC: 3.99981 (Simulation time: 0 hr 3 min 25 sec) 
Warmup finished CPU 0 instructions: 50000000 cycles: 12500611 cumulative IPC: 3.99981 (Simulation time: 0 hr 3 min 25 sec) 

Warmup complete CPU 0 instructions: 50000000 cycles: 12500611 (Simulation time: 0 hr 3 min 25 sec) 

Heartbeat CPU 0 instructions: 60000003 cycles: 27494028 heartbeat IPC: 0.66696 cumulative IPC: 0.66696 (Simulation time: 0 hr 4 min 30 sec) 
Heartbeat CPU 0 instructions: 70000000 cycles: 43637854 heartbeat IPC: 0.619432 cumulative IPC: 0.642318 (Simulation time: 0 hr 5 min 37 sec) 
Heartbeat CPU 0 instructions: 80000000 cycles: 59015738 heartbeat IPC: 0.650285 cumulative IPC: 0.644952 (Simulation time: 0 hr 6 min 43 sec) 
Heartbeat CPU 0 instructions: 90000000 cycles: 75786473 heartbeat IPC: 0.596277 cumulative IPC: 0.632053 (Simulation time: 0 hr 7 min 51 sec) 
Heartbeat CPU 0 instructions: 100000000 cycles: 91119470 heartbeat IPC: 0.652189 cumulative IPC: 0.63598 (Simulation time: 0 hr 8 min 58 sec) 
*** Reached end of trace: /gpfs/projects/bsc18/MN4/bsc18/romol/ChampSim/traces/qualcomm_srv/srv393_ap.champsimtrace.xz
Heartbeat CPU 0 instructions: 110000002 cycles: 106559291 heartbeat IPC: 0.647677 cumulative IPC: 0.6379 (Simulation time: 0 hr 10 min 6 sec) 
Heartbeat CPU 0 instructions: 120000002 cycles: 122592606 heartbeat IPC: 0.623702 cumulative IPC: 0.635832 (Simulation time: 0 hr 11 min 12 sec) 
Heartbeat CPU 0 instructions: 130000000 cycles: 137338047 heartbeat IPC: 0.678176 cumulative IPC: 0.640834 (Simulation time: 0 hr 12 min 17 sec) 
Heartbeat CPU 0 instructions: 140000003 cycles: 152080610 heartbeat IPC: 0.678309 cumulative IPC: 0.644792 (Simulation time: 0 hr 13 min 22 sec) 
Heartbeat CPU 0 instructions: 150000001 cycles: 166983927 heartbeat IPC: 0.670992 cumulative IPC: 0.64732 (Simulation time: 0 hr 14 min 28 sec) 
Simulation finished CPU 0 instructions: 100000001 cycles: 154483317 cumulative IPC: 0.64732 (Simulation time: 0 hr 14 min 28 sec) 

Simulation complete CPU 0 instructions: 100000001 cycles: 154483317 (Simulation time: 0 hr 14 min 28 sec) 


ChampSim completed all CPUs

Saving instructions large page distribution to /home/bsc/bsc018186/scratch/itp_asplos25_AE/dump/srv393_ap.pdst...
Saving data large page distribution to /home/bsc/bsc018186/scratch/itp_asplos25_AE/dump/srv393_ap.pdst...
=== Simulation ===
CPU 0 runs /gpfs/projects/bsc18/MN4/bsc18/romol/ChampSim/traces/qualcomm_srv/srv393_ap.champsimtrace.xz

Region of Interest Statistics

CPU 0 cumulative IPC: 0.64732 instructions: 100000001 cycles: 154483317
CPU 0 Branch Prediction Accuracy: 83.2998% MPKI: 29.8571 Average ROB Occupancy at Mispredict: 12.5502
Branch type MPKI
BRANCH_DIRECT_JUMP: 1.03687
BRANCH_INDIRECT: 15.3648
BRANCH_CONDITIONAL: 9.727
BRANCH_DIRECT_CALL: 1.86547
BRANCH_INDIRECT_CALL: 0.50973
BRANCH_RETURN: 1.35325

Instructions large pages: 0
Instructions small pages: 1028
Large page distribution for instructions: 0%

Data large pages: 0
Data small pages: 10369
Large page distribution for data: 0%

cpu0_L1I TOTAL       ACCESS:   34662652  HIT:   26936718  MISS:    7725934  iACCESS:   34662652  iHIT:   26936718  iMISS:    7725934  dACCESS:          0  dHIT:          0  dMISS:          0  itACCESS:          0  itHIT:          0  itMISS:          0  dtACCESS:          0  dtHIT:          0  dtMISS:          0
cpu0_L1I LOAD         ACCESS:   10182379  HIT:    8010130  MISS:    2172249  iACCESS:   10182379  iHIT:    8010130  iMISS:    2172249  dACCESS:          0  dHIT:          0  dMISS:          0  itACCESS:          0  itHIT:          0  itMISS:          0  dtACCESS:          0  dtHIT:          0  dtMISS:          0
cpu0_L1I RFO          ACCESS:          0  HIT:          0  MISS:          0  iACCESS:          0  iHIT:          0  iMISS:          0  dACCESS:          0  dHIT:          0  dMISS:          0  itACCESS:          0  itHIT:          0  itMISS:          0  dtACCESS:          0  dtHIT:          0  dtMISS:          0
cpu0_L1I PREFETCH     ACCESS:   24480273  HIT:   18926588  MISS:    5553685  iACCESS:   24480273  iHIT:   18926588  iMISS:    5553685  dACCESS:          0  dHIT:          0  dMISS:          0  itACCESS:          0  itHIT:          0  itMISS:          0  dtACCESS:          0  dtHIT:          0  dtMISS:          0
cpu0_L1I WRITE        ACCESS:          0  HIT:          0  MISS:          0  iACCESS:          0  iHIT:          0  iMISS:          0  dACCESS:          0  dHIT:          0  dMISS:          0  itACCESS:          0  itHIT:          0  itMISS:          0  dtACCESS:          0  dtHIT:          0  dtMISS:          0
cpu0_L1I TRANSLATION  ACCESS:          0  HIT:          0  MISS:          0  iACCESS:          0  iHIT:          0  iMISS:          0  dACCESS:          0  dHIT:          0  dMISS:          0  itACCESS:          0  itHIT:          0  itMISS:          0  dtACCESS:          0  dtHIT:          0  dtMISS:          0
cpu0_L1I PREFETCH  REQUESTED:   27063913  ISSUED:   27063913  CROSSED:          0  USEFUL:    1878827  USELESS:     623841
cpu0_L1I AVERAGE iMISS LATENCY: 13.1999 cycles
cpu0_L1I AVERAGE dMISS LATENCY: 0 cycles
cpu0_L1I AVERAGE itMISS LATENCY: 0 cycles
cpu0_L1I AVERAGE dtMISS LATENCY: 0 cycles
cpu0_L1I PAGE CROSSINGS (TLB HIT):         0 
cpu0_L1I PAGE CROSSINGS (TLB MISS):         0 
cpu0_L1I AVERAGE MISS LATENCY: 13.1999 cycles
cpu0_ITLB TOTAL       ACCESS:   28950963  HIT:   26980388  MISS:    1970575  iACCESS:   28950963  iHIT:   26980388  iMISS:    1970575  dACCESS:          0  dHIT:          0  dMISS:          0  itACCESS:          0  itHIT:          0  itMISS:          0  dtACCESS:          0  dtHIT:          0  dtMISS:          0
cpu0_ITLB LOAD         ACCESS:   28950963  HIT:   26980388  MISS:    1970575  iACCESS:   28950963  iHIT:   26980388  iMISS:    1970575  dACCESS:          0  dHIT:          0  dMISS:          0  itACCESS:          0  itHIT:          0  itMISS:          0  dtACCESS:          0  dtHIT:          0  dtMISS:          0
cpu0_ITLB RFO          ACCESS:          0  HIT:          0  MISS:          0  iACCESS:          0  iHIT:          0  iMISS:          0  dACCESS:          0  dHIT:          0  dMISS:          0  itACCESS:          0  itHIT:          0  itMISS:          0  dtACCESS:          0  dtHIT:          0  dtMISS:          0
cpu0_ITLB PREFETCH     ACCESS:          0  HIT:          0  MISS:          0  iACCESS:          0  iHIT:          0  iMISS:          0  dACCESS:          0  dHIT:          0  dMISS:          0  itACCESS:          0  itHIT:          0  itMISS:          0  dtACCESS:          0  dtHIT:          0  dtMISS:          0
cpu0_ITLB WRITE        ACCESS:          0  HIT:          0  MISS:          0  iACCESS:          0  iHIT:          0  iMISS:          0  dACCESS:          0  dHIT:          0  dMISS:          0  itACCESS:          0  itHIT:          0  itMISS:          0  dtACCESS:          0  dtHIT:          0  dtMISS:          0
cpu0_ITLB TRANSLATION  ACCESS:          0  HIT:          0  MISS:          0  iACCESS:          0  iHIT:          0  iMISS:          0  dACCESS:          0  dHIT:          0  dMISS:          0  itACCESS:          0  itHIT:          0  itMISS:          0  dtACCESS:          0  dtHIT:          0  dtMISS:          0
cpu0_ITLB PREFETCH  REQUESTED:          0  ISSUED:          0  CROSSED:          0  USEFUL:     319299  USELESS:      66915
cpu0_ITLB AVERAGE iMISS LATENCY: 5.20906 cycles
cpu0_ITLB AVERAGE dMISS LATENCY: 0 cycles
cpu0_ITLB AVERAGE itMISS LATENCY: 0 cycles
cpu0_ITLB AVERAGE dtMISS LATENCY: 0 cycles
cpu0_ITLB PAGE CROSSINGS (TLB HIT):         0 
cpu0_ITLB PAGE CROSSINGS (TLB MISS):         0 
cpu0_ITLB AVERAGE MISS LATENCY: 5.20906 cycles
cpu0_DTLB TOTAL       ACCESS:   27682238  HIT:   25852323  MISS:    1829915  iACCESS:          0  iHIT:          0  iMISS:          0  dACCESS:   27682238  dHIT:   25852323  dMISS:    1829915  itACCESS:          0  itHIT:          0  itMISS:          0  dtACCESS:          0  dtHIT:          0  dtMISS:          0
cpu0_DTLB LOAD         ACCESS:   27682238  HIT:   25852323  MISS:    1829915  iACCESS:          0  iHIT:          0  iMISS:          0  dACCESS:   27682238  dHIT:   25852323  dMISS:    1829915  itACCESS:          0  itHIT:          0  itMISS:          0  dtACCESS:          0  dtHIT:          0  dtMISS:          0
cpu0_DTLB RFO          ACCESS:          0  HIT:          0  MISS:          0  iACCESS:          0  iHIT:          0  iMISS:          0  dACCESS:          0  dHIT:          0  dMISS:          0  itACCESS:          0  itHIT:          0  itMISS:          0  dtACCESS:          0  dtHIT:          0  dtMISS:          0
cpu0_DTLB PREFETCH     ACCESS:          0  HIT:          0  MISS:          0  iACCESS:          0  iHIT:          0  iMISS:          0  dACCESS:          0  dHIT:          0  dMISS:          0  itACCESS:          0  itHIT:          0  itMISS:          0  dtACCESS:          0  dtHIT:          0  dtMISS:          0
cpu0_DTLB WRITE        ACCESS:          0  HIT:          0  MISS:          0  iACCESS:          0  iHIT:          0  iMISS:          0  dACCESS:          0  dHIT:          0  dMISS:          0  itACCESS:          0  itHIT:          0  itMISS:          0  dtACCESS:          0  dtHIT:          0  dtMISS:          0
cpu0_DTLB TRANSLATION  ACCESS:          0  HIT:          0  MISS:          0  iACCESS:          0  iHIT:          0  iMISS:          0  dACCESS:          0  dHIT:          0  dMISS:          0  itACCESS:          0  itHIT:          0  itMISS:          0  dtACCESS:          0  dtHIT:          0  dtMISS:          0
cpu0_DTLB PREFETCH  REQUESTED:          0  ISSUED:          0  CROSSED:          0  USEFUL:          0  USELESS:          0
cpu0_DTLB AVERAGE iMISS LATENCY: 0 cycles
cpu0_DTLB AVERAGE dMISS LATENCY: 16.3615 cycles
cpu0_DTLB AVERAGE itMISS LATENCY: 0 cycles
cpu0_DTLB AVERAGE dtMISS LATENCY: 0 cycles
cpu0_DTLB PAGE CROSSINGS (TLB HIT):         0 
cpu0_DTLB PAGE CROSSINGS (TLB MISS):         0 
cpu0_DTLB AVERAGE MISS LATENCY: 16.3615 cycles
cpu0_STLB TOTAL       ACCESS:    1498812  HIT:    1320227  MISS:     178585  iACCESS:     386210  iHIT:     321673  iMISS:      64537  dACCESS:    1112602  dHIT:     998554  dMISS:     114048  itACCESS:          0  itHIT:          0  itMISS:          0  dtACCESS:          0  dtHIT:          0  dtMISS:          0
cpu0_STLB LOAD         ACCESS:    1498812  HIT:    1320227  MISS:     178585  iACCESS:     386210  iHIT:     321673  iMISS:      64537  dACCESS:    1112602  dHIT:     998554  dMISS:     114048  itACCESS:          0  itHIT:          0  itMISS:          0  dtACCESS:          0  dtHIT:          0  dtMISS:          0
cpu0_STLB RFO          ACCESS:          0  HIT:          0  MISS:          0  iACCESS:          0  iHIT:          0  iMISS:          0  dACCESS:          0  dHIT:          0  dMISS:          0  itACCESS:          0  itHIT:          0  itMISS:          0  dtACCESS:          0  dtHIT:          0  dtMISS:          0
cpu0_STLB PREFETCH     ACCESS:          0  HIT:          0  MISS:          0  iACCESS:          0  iHIT:          0  iMISS:          0  dACCESS:          0  dHIT:          0  dMISS:          0  itACCESS:          0  itHIT:          0  itMISS:          0  dtACCESS:          0  dtHIT:          0  dtMISS:          0
cpu0_STLB WRITE        ACCESS:          0  HIT:          0  MISS:          0  iACCESS:          0  iHIT:          0  iMISS:          0  dACCESS:          0  dHIT:          0  dMISS:          0  itACCESS:          0  itHIT:          0  itMISS:          0  dtACCESS:          0  dtHIT:          0  dtMISS:          0
cpu0_STLB TRANSLATION  ACCESS:          0  HIT:          0  MISS:          0  iACCESS:          0  iHIT:          0  iMISS:          0  dACCESS:          0  dHIT:          0  dMISS:          0  itACCESS:          0  itHIT:          0  itMISS:          0  dtACCESS:          0  dtHIT:          0  dtMISS:          0
cpu0_STLB PREFETCH  REQUESTED:          0  ISSUED:          0  CROSSED:          0  USEFUL:          0  USELESS:          0
cpu0_STLB AVERAGE iMISS LATENCY: 40.3524 cycles
cpu0_STLB AVERAGE dMISS LATENCY: 117.876 cycles
cpu0_STLB AVERAGE itMISS LATENCY: 0 cycles
cpu0_STLB AVERAGE dtMISS LATENCY: 0 cycles
cpu0_STLB PAGE CROSSINGS (TLB HIT):         0 
cpu0_STLB PAGE CROSSINGS (TLB MISS):         0 
cpu0_STLB AVERAGE MISS LATENCY: 158.228 cycles
cpu0_L1D TOTAL       ACCESS:   41397859  HIT:   37984384  MISS:    3413475  iACCESS:          0  iHIT:          0  iMISS:          0  dACCESS:   41155490  dHIT:   37962851  dMISS:    3192639  itACCESS:      70175  itHIT:      10113  itMISS:      60062  dtACCESS:     172194  dtHIT:      11420  dtMISS:     160774
cpu0_L1D LOAD         ACCESS:   18912321  HIT:   17458959  MISS:    1453362  iACCESS:          0  iHIT:          0  iMISS:          0  dACCESS:   18912321  dHIT:   17458959  dMISS:    1453362  itACCESS:          0  itHIT:          0  itMISS:          0  dtACCESS:          0  dtHIT:          0  dtMISS:          0
cpu0_L1D RFO          ACCESS:          0  HIT:          0  MISS:          0  iACCESS:          0  iHIT:          0  iMISS:          0  dACCESS:          0  dHIT:          0  dMISS:          0  itACCESS:          0  itHIT:          0  itMISS:          0  dtACCESS:          0  dtHIT:          0  dtMISS:          0
cpu0_L1D PREFETCH     ACCESS:   12063803  HIT:   10753458  MISS:    1310345  iACCESS:          0  iHIT:          0  iMISS:          0  dACCESS:   12063803  dHIT:   10753458  dMISS:    1310345  itACCESS:          0  itHIT:          0  itMISS:          0  dtACCESS:          0  dtHIT:          0  dtMISS:          0
cpu0_L1D WRITE        ACCESS:   10179366  HIT:    9750434  MISS:     428932  iACCESS:          0  iHIT:          0  iMISS:          0  dACCESS:   10179366  dHIT:    9750434  dMISS:     428932  itACCESS:          0  itHIT:          0  itMISS:          0  dtACCESS:          0  dtHIT:          0  dtMISS:          0
cpu0_L1D TRANSLATION  ACCESS:     242369  HIT:      21533  MISS:     220836  iACCESS:          0  iHIT:          0  iMISS:          0  dACCESS:          0  dHIT:          0  dMISS:          0  itACCESS:      70175  itHIT:      10113  itMISS:      60062  dtACCESS:     172194  dtHIT:      11420  dtMISS:     160774
cpu0_L1D PREFETCH  REQUESTED:   18912321  ISSUED:   16860999  CROSSED:          0  USEFUL:     304028  USELESS:     695552
cpu0_L1D AVERAGE iMISS LATENCY: 0 cycles
cpu0_L1D AVERAGE dMISS LATENCY: 34.1472 cycles
cpu0_L1D AVERAGE itMISS LATENCY: 1.94725 cycles
cpu0_L1D AVERAGE dtMISS LATENCY: 5.40489 cycles
cpu0_L1D PAGE CROSSINGS (TLB HIT):         0 
cpu0_L1D PAGE CROSSINGS (TLB MISS):         0 
cpu0_L1D AVERAGE MISS LATENCY: 41.4993 cycles
cpu0_L2C TOTAL       ACCESS:    6890360  HIT:    3948950  MISS:    2941410  iACCESS:    3257177  iHIT:    2165146  iMISS:    1092031  dACCESS:    3422509  dHIT:    1750157  dMISS:    1672352  itACCESS:      60062  itHIT:      11551  itMISS:      48511  dtACCESS:     150612  dtHIT:      22096  dtMISS:     128516
cpu0_L2C LOAD         ACCESS:    1711242  HIT:    1008426  MISS:     702816  iACCESS:     788770  iHIT:     544565  iMISS:     244205  dACCESS:     922472  dHIT:     463861  dMISS:     458611  itACCESS:          0  itHIT:          0  itMISS:          0  dtACCESS:          0  dtHIT:          0  dtMISS:          0
cpu0_L2C RFO          ACCESS:     155689  HIT:      69357  MISS:      86332  iACCESS:          0  iHIT:          0  iMISS:          0  dACCESS:     155689  dHIT:      69357  dMISS:      86332  itACCESS:          0  itHIT:          0  itMISS:          0  dtACCESS:          0  dtHIT:          0  dtMISS:          0
cpu0_L2C PREFETCH     ACCESS:    4530792  HIT:    2556972  MISS:    1973820  iACCESS:    2468407  iHIT:    1620581  iMISS:     847826  dACCESS:    2062385  dHIT:     936391  dMISS:    1125994  itACCESS:          0  itHIT:          0  itMISS:          0  dtACCESS:          0  dtHIT:          0  dtMISS:          0
cpu0_L2C WRITE        ACCESS:     281963  HIT:     280548  MISS:       1415  iACCESS:          0  iHIT:          0  iMISS:          0  dACCESS:     281963  dHIT:     280548  dMISS:       1415  itACCESS:          0  itHIT:          0  itMISS:          0  dtACCESS:          0  dtHIT:          0  dtMISS:          0
cpu0_L2C TRANSLATION  ACCESS:     210674  HIT:      33647  MISS:     177027  iACCESS:          0  iHIT:          0  iMISS:          0  dACCESS:          0  dHIT:          0  dMISS:          0  itACCESS:      60062  itHIT:      11551  itMISS:      48511  dtACCESS:     150612  dtHIT:      22096  dtMISS:     128516
cpu0_L2C PREFETCH  REQUESTED:    1306621  ISSUED:    1306621  CROSSED:          0  USEFUL:     308914  USELESS:     228097
cpu0_L2C AVERAGE iMISS LATENCY: 24.7537 cycles
cpu0_L2C AVERAGE dMISS LATENCY: 46.5472 cycles
cpu0_L2C AVERAGE itMISS LATENCY: 2.05901 cycles
cpu0_L2C AVERAGE dtMISS LATENCY: 5.76392 cycles
cpu0_L2C PAGE CROSSINGS (TLB HIT):         0 
cpu0_L2C PAGE CROSSINGS (TLB MISS):         0 
cpu0_L2C AVERAGE MISS LATENCY: 79.1238 cycles
LLC TOTAL       ACCESS:    2971918  HIT:    1844547  MISS:    1127371  iACCESS:    1039026  iHIT:     681029  iMISS:     357997  dACCESS:    1755865  dHIT:    1096527  dMISS:     659338  itACCESS:      48511  itHIT:      18604  itMISS:      29907  dtACCESS:     128516  dtHIT:      48387  dtMISS:      80129
LLC LOAD         ACCESS:     701594  HIT:     449818  MISS:     251776  iACCESS:     243165  iHIT:     160272  iMISS:      82893  dACCESS:     458429  dHIT:     289546  dMISS:     168883  itACCESS:          0  itHIT:          0  itMISS:          0  dtACCESS:          0  dtHIT:          0  dtMISS:          0
LLC RFO          ACCESS:      86324  HIT:      46679  MISS:      39645  iACCESS:          0  iHIT:          0  iMISS:          0  dACCESS:      86324  dHIT:      46679  dMISS:      39645  itACCESS:          0  itHIT:          0  itMISS:          0  dtACCESS:          0  dtHIT:          0  dtMISS:          0
LLC PREFETCH     ACCESS:    1866316  HIT:    1147015  MISS:     719301  iACCESS:     795861  iHIT:     520757  iMISS:     275104  dACCESS:    1070455  dHIT:     626258  dMISS:     444197  itACCESS:          0  itHIT:          0  itMISS:          0  dtACCESS:          0  dtHIT:          0  dtMISS:          0
LLC WRITE        ACCESS:     140657  HIT:     134044  MISS:       6613  iACCESS:          0  iHIT:          0  iMISS:          0  dACCESS:     140657  dHIT:     134044  dMISS:       6613  itACCESS:          0  itHIT:          0  itMISS:          0  dtACCESS:          0  dtHIT:          0  dtMISS:          0
LLC TRANSLATION  ACCESS:     177027  HIT:      66991  MISS:     110036  iACCESS:          0  iHIT:          0  iMISS:          0  dACCESS:          0  dHIT:          0  dMISS:          0  itACCESS:      48511  itHIT:      18604  itMISS:      29907  dtACCESS:     128516  dtHIT:      48387  dtMISS:      80129
LLC PREFETCH  REQUESTED:          0  ISSUED:          0  CROSSED:          0  USEFUL:          0  USELESS:          0
LLC AVERAGE iMISS LATENCY: 46.6732 cycles
LLC AVERAGE dMISS LATENCY: 93.6859 cycles
LLC AVERAGE itMISS LATENCY: 4.52966 cycles
LLC AVERAGE dtMISS LATENCY: 12.8084 cycles
LLC PAGE CROSSINGS (TLB HIT):         0 
LLC PAGE CROSSINGS (TLB MISS):         0 
LLC AVERAGE MISS LATENCY: 157.698 cycles

PageTableWalker TOTAL       ACCESS:      88979  
PageTableWalker AVERAGE LATENCY: 5.1824 cycles
PageTableWalker TOTAL LATENCY: 461124 cycles

DRAM Statistics
Channel 0
 RQ ROW_BUFFER_HIT:     298422
  ROW_BUFFER_MISS:     822278
 AVG DBUS CONGESTED CYCLE:    3.62798
 WQ ROW_BUFFER_HIT:      23114
  ROW_BUFFER_MISS:      21512  FULL:          0

