last_page:0x200000000000000
VMEM_RES_CAP:0x100000
PAGE_SIZE:4096
LOG2_PAGE_SIZE:12
LOG2_PAGE_TABLE_SIZE:9
page_table_levels:5
WARNING: physical memory size is smaller than virtual memory size
FDiP enabled with aggresivity 16

*** ChampSim Multicore Out-of-Order Simulator ***

Warmup Instructions: 50000000
Simulation Instructions: 100000000
Number of CPUs: 1
Small page size: 4096
Large page size: 2097152

CPU 0 Bimodal branch predictor
Basic BTB sets: 1024 ways: 8 indirect buffer size: 4096 RAS size: 64
Instruction page size distrubution: 0
Loading instruction page size distribution from /home/bsc/bsc018186/scratch/itp_asplos25_AE/dump/srv331_ap.pdst
Data page size distrubution: 0
Loading data page size distribution from /home/bsc/bsc018186/scratch/itp_asplos25_AE/dump/srv331_ap.pdst
cpu0_L2C IP-based stride prefetcher
cpu0_L2C is using PTP replacement policy:
	TLB_STRESS_THRESHOLD:0
	PTE_EVICTION_RATIO:0
cpu0_L1D next line prefetcher
CHiRPing...
cpu0_L1I next line prefetcher
Off-chip DRAM Size: 4 GiB Channels: 1 Width: 64-bit Data Rate: 3200 MT/s
Heartbeat CPU 0 instructions: 10000000 cycles: 2500307 heartbeat IPC: 3.99951 cumulative IPC: 3.99951 (Simulation time: 0 hr 0 min 37 sec) 
Heartbeat CPU 0 instructions: 20000003 cycles: 5000404 heartbeat IPC: 3.99985 cumulative IPC: 3.99968 (Simulation time: 0 hr 1 min 17 sec) 
Heartbeat CPU 0 instructions: 30000001 cycles: 7500602 heartbeat IPC: 3.99969 cumulative IPC: 3.99968 (Simulation time: 0 hr 1 min 57 sec) 
Heartbeat CPU 0 instructions: 40000001 cycles: 10000668 heartbeat IPC: 3.9999 cumulative IPC: 3.99974 (Simulation time: 0 hr 2 min 38 sec) 
Heartbeat CPU 0 instructions: 50000003 cycles: 12500696 heartbeat IPC: 3.99996 cumulative IPC: 3.99978 (Simulation time: 0 hr 3 min 18 sec) 
Warmup finished CPU 0 instructions: 50000003 cycles: 12500697 cumulative IPC: 3.99978 (Simulation time: 0 hr 3 min 18 sec) 

Warmup complete CPU 0 instructions: 50000003 cycles: 12500697 (Simulation time: 0 hr 3 min 18 sec) 

Heartbeat CPU 0 instructions: 60000001 cycles: 27275586 heartbeat IPC: 0.676824 cumulative IPC: 0.676824 (Simulation time: 0 hr 4 min 23 sec) 
Heartbeat CPU 0 instructions: 70000002 cycles: 41442341 heartbeat IPC: 0.705879 cumulative IPC: 0.691046 (Simulation time: 0 hr 5 min 27 sec) 
Heartbeat CPU 0 instructions: 80000001 cycles: 56322346 heartbeat IPC: 0.672043 cumulative IPC: 0.684594 (Simulation time: 0 hr 6 min 31 sec) 
Heartbeat CPU 0 instructions: 90000004 cycles: 71077629 heartbeat IPC: 0.677724 cumulative IPC: 0.682863 (Simulation time: 0 hr 7 min 36 sec) 
Heartbeat CPU 0 instructions: 100000003 cycles: 86208228 heartbeat IPC: 0.660913 cumulative IPC: 0.678357 (Simulation time: 0 hr 8 min 41 sec) 
*** Reached end of trace: /gpfs/projects/bsc18/MN4/bsc18/romol/ChampSim/traces/qualcomm_srv/srv331_ap.champsimtrace.xz
Heartbeat CPU 0 instructions: 110000003 cycles: 100328875 heartbeat IPC: 0.708183 cumulative IPC: 0.683153 (Simulation time: 0 hr 9 min 45 sec) 
Heartbeat CPU 0 instructions: 120000004 cycles: 115624891 heartbeat IPC: 0.653766 cumulative IPC: 0.678794 (Simulation time: 0 hr 10 min 51 sec) 
Heartbeat CPU 0 instructions: 130000003 cycles: 130082924 heartbeat IPC: 0.691657 cumulative IPC: 0.680375 (Simulation time: 0 hr 11 min 56 sec) 
Heartbeat CPU 0 instructions: 140000004 cycles: 144653678 heartbeat IPC: 0.686307 cumulative IPC: 0.681029 (Simulation time: 0 hr 13 min 1 sec) 
Heartbeat CPU 0 instructions: 150000000 cycles: 158857492 heartbeat IPC: 0.704036 cumulative IPC: 0.683262 (Simulation time: 0 hr 14 min 5 sec) 
Simulation finished CPU 0 instructions: 100000000 cycles: 146356798 cumulative IPC: 0.683262 (Simulation time: 0 hr 14 min 5 sec) 

Simulation complete CPU 0 instructions: 100000000 cycles: 146356798 (Simulation time: 0 hr 14 min 5 sec) 


ChampSim completed all CPUs

Saving instructions large page distribution to /home/bsc/bsc018186/scratch/itp_asplos25_AE/dump/srv331_ap.pdst...
Saving data large page distribution to /home/bsc/bsc018186/scratch/itp_asplos25_AE/dump/srv331_ap.pdst...
=== Simulation ===
CPU 0 runs /gpfs/projects/bsc18/MN4/bsc18/romol/ChampSim/traces/qualcomm_srv/srv331_ap.champsimtrace.xz

Region of Interest Statistics

CPU 0 cumulative IPC: 0.683262 instructions: 100000000 cycles: 146356798
CPU 0 Branch Prediction Accuracy: 82.5235% MPKI: 31.3422 Average ROB Occupancy at Mispredict: 12.5697
Branch type MPKI
BRANCH_DIRECT_JUMP: 1.05916
BRANCH_INDIRECT: 16.2178
BRANCH_CONDITIONAL: 10.2351
BRANCH_DIRECT_CALL: 1.92154
BRANCH_INDIRECT_CALL: 0.525541
BRANCH_RETURN: 1.38308

Instructions large pages: 0
Instructions small pages: 10465
Large page distribution for instructions: 0%

Data large pages: 0
Data small pages: 9462
Large page distribution for data: 0%

cpu0_L1I TOTAL       ACCESS:   35754075  HIT:   27232176  MISS:    8521899  iACCESS:   35754075  iHIT:   27232176  iMISS:    8521899  dACCESS:          0  dHIT:          0  dMISS:          0  itACCESS:          0  itHIT:          0  itMISS:          0  dtACCESS:          0  dtHIT:          0  dtMISS:          0
cpu0_L1I LOAD         ACCESS:   10455791  HIT:    8077826  MISS:    2377965  iACCESS:   10455791  iHIT:    8077826  iMISS:    2377965  dACCESS:          0  dHIT:          0  dMISS:          0  itACCESS:          0  itHIT:          0  itMISS:          0  dtACCESS:          0  dtHIT:          0  dtMISS:          0
cpu0_L1I RFO          ACCESS:          0  HIT:          0  MISS:          0  iACCESS:          0  iHIT:          0  iMISS:          0  dACCESS:          0  dHIT:          0  dMISS:          0  itACCESS:          0  itHIT:          0  itMISS:          0  dtACCESS:          0  dtHIT:          0  dtMISS:          0
cpu0_L1I PREFETCH     ACCESS:   25298284  HIT:   19154350  MISS:    6143934  iACCESS:   25298284  iHIT:   19154350  iMISS:    6143934  dACCESS:          0  dHIT:          0  dMISS:          0  itACCESS:          0  itHIT:          0  itMISS:          0  dtACCESS:          0  dtHIT:          0  dtMISS:          0
cpu0_L1I WRITE        ACCESS:          0  HIT:          0  MISS:          0  iACCESS:          0  iHIT:          0  iMISS:          0  dACCESS:          0  dHIT:          0  dMISS:          0  itACCESS:          0  itHIT:          0  itMISS:          0  dtACCESS:          0  dtHIT:          0  dtMISS:          0
cpu0_L1I TRANSLATION  ACCESS:          0  HIT:          0  MISS:          0  iACCESS:          0  iHIT:          0  iMISS:          0  dACCESS:          0  dHIT:          0  dMISS:          0  itACCESS:          0  itHIT:          0  itMISS:          0  dtACCESS:          0  dtHIT:          0  dtMISS:          0
cpu0_L1I PREFETCH  REQUESTED:   27553518  ISSUED:   27551675  CROSSED:          0  USEFUL:    1953178  USELESS:     632898
cpu0_L1I AVERAGE iMISS LATENCY: 14.4984 cycles
cpu0_L1I AVERAGE dMISS LATENCY: 0 cycles
cpu0_L1I AVERAGE itMISS LATENCY: 0 cycles
cpu0_L1I AVERAGE dtMISS LATENCY: 0 cycles
cpu0_L1I PAGE CROSSINGS (TLB HIT):         0 
cpu0_L1I PAGE CROSSINGS (TLB MISS):         0 
cpu0_L1I AVERAGE MISS LATENCY: 14.4984 cycles
cpu0_ITLB TOTAL       ACCESS:   29542445  HIT:   27621432  MISS:    1921013  iACCESS:   29542445  iHIT:   27621432  iMISS:    1921013  dACCESS:          0  dHIT:          0  dMISS:          0  itACCESS:          0  itHIT:          0  itMISS:          0  dtACCESS:          0  dtHIT:          0  dtMISS:          0
cpu0_ITLB LOAD         ACCESS:   29542445  HIT:   27621432  MISS:    1921013  iACCESS:   29542445  iHIT:   27621432  iMISS:    1921013  dACCESS:          0  dHIT:          0  dMISS:          0  itACCESS:          0  itHIT:          0  itMISS:          0  dtACCESS:          0  dtHIT:          0  dtMISS:          0
cpu0_ITLB RFO          ACCESS:          0  HIT:          0  MISS:          0  iACCESS:          0  iHIT:          0  iMISS:          0  dACCESS:          0  dHIT:          0  dMISS:          0  itACCESS:          0  itHIT:          0  itMISS:          0  dtACCESS:          0  dtHIT:          0  dtMISS:          0
cpu0_ITLB PREFETCH     ACCESS:          0  HIT:          0  MISS:          0  iACCESS:          0  iHIT:          0  iMISS:          0  dACCESS:          0  dHIT:          0  dMISS:          0  itACCESS:          0  itHIT:          0  itMISS:          0  dtACCESS:          0  dtHIT:          0  dtMISS:          0
cpu0_ITLB WRITE        ACCESS:          0  HIT:          0  MISS:          0  iACCESS:          0  iHIT:          0  iMISS:          0  dACCESS:          0  dHIT:          0  dMISS:          0  itACCESS:          0  itHIT:          0  itMISS:          0  dtACCESS:          0  dtHIT:          0  dtMISS:          0
cpu0_ITLB TRANSLATION  ACCESS:          0  HIT:          0  MISS:          0  iACCESS:          0  iHIT:          0  iMISS:          0  dACCESS:          0  dHIT:          0  dMISS:          0  itACCESS:          0  itHIT:          0  itMISS:          0  dtACCESS:          0  dtHIT:          0  dtMISS:          0
cpu0_ITLB PREFETCH  REQUESTED:          0  ISSUED:          0  CROSSED:          0  USEFUL:     319451  USELESS:      63358
cpu0_ITLB AVERAGE iMISS LATENCY: 2.762 cycles
cpu0_ITLB AVERAGE dMISS LATENCY: 0 cycles
cpu0_ITLB AVERAGE itMISS LATENCY: 0 cycles
cpu0_ITLB AVERAGE dtMISS LATENCY: 0 cycles
cpu0_ITLB PAGE CROSSINGS (TLB HIT):         0 
cpu0_ITLB PAGE CROSSINGS (TLB MISS):         0 
cpu0_ITLB AVERAGE MISS LATENCY: 2.762 cycles
cpu0_DTLB TOTAL       ACCESS:   27931382  HIT:   26087531  MISS:    1843851  iACCESS:          0  iHIT:          0  iMISS:          0  dACCESS:   27931382  dHIT:   26087531  dMISS:    1843851  itACCESS:          0  itHIT:          0  itMISS:          0  dtACCESS:          0  dtHIT:          0  dtMISS:          0
cpu0_DTLB LOAD         ACCESS:   27931382  HIT:   26087531  MISS:    1843851  iACCESS:          0  iHIT:          0  iMISS:          0  dACCESS:   27931382  dHIT:   26087531  dMISS:    1843851  itACCESS:          0  itHIT:          0  itMISS:          0  dtACCESS:          0  dtHIT:          0  dtMISS:          0
cpu0_DTLB RFO          ACCESS:          0  HIT:          0  MISS:          0  iACCESS:          0  iHIT:          0  iMISS:          0  dACCESS:          0  dHIT:          0  dMISS:          0  itACCESS:          0  itHIT:          0  itMISS:          0  dtACCESS:          0  dtHIT:          0  dtMISS:          0
cpu0_DTLB PREFETCH     ACCESS:          0  HIT:          0  MISS:          0  iACCESS:          0  iHIT:          0  iMISS:          0  dACCESS:          0  dHIT:          0  dMISS:          0  itACCESS:          0  itHIT:          0  itMISS:          0  dtACCESS:          0  dtHIT:          0  dtMISS:          0
cpu0_DTLB WRITE        ACCESS:          0  HIT:          0  MISS:          0  iACCESS:          0  iHIT:          0  iMISS:          0  dACCESS:          0  dHIT:          0  dMISS:          0  itACCESS:          0  itHIT:          0  itMISS:          0  dtACCESS:          0  dtHIT:          0  dtMISS:          0
cpu0_DTLB TRANSLATION  ACCESS:          0  HIT:          0  MISS:          0  iACCESS:          0  iHIT:          0  iMISS:          0  dACCESS:          0  dHIT:          0  dMISS:          0  itACCESS:          0  itHIT:          0  itMISS:          0  dtACCESS:          0  dtHIT:          0  dtMISS:          0
cpu0_DTLB PREFETCH  REQUESTED:          0  ISSUED:          0  CROSSED:          0  USEFUL:          0  USELESS:          0
cpu0_DTLB AVERAGE iMISS LATENCY: 0 cycles
cpu0_DTLB AVERAGE dMISS LATENCY: 9.48118 cycles
cpu0_DTLB AVERAGE itMISS LATENCY: 0 cycles
cpu0_DTLB AVERAGE dtMISS LATENCY: 0 cycles
cpu0_DTLB PAGE CROSSINGS (TLB HIT):         0 
cpu0_DTLB PAGE CROSSINGS (TLB MISS):         0 
cpu0_DTLB AVERAGE MISS LATENCY: 9.48118 cycles
cpu0_STLB TOTAL       ACCESS:    1543129  HIT:    1372106  MISS:     171023  iACCESS:     382818  iHIT:     323097  iMISS:      59721  dACCESS:    1160311  dHIT:    1049009  dMISS:     111302  itACCESS:          0  itHIT:          0  itMISS:          0  dtACCESS:          0  dtHIT:          0  dtMISS:          0
cpu0_STLB LOAD         ACCESS:    1543129  HIT:    1372106  MISS:     171023  iACCESS:     382818  iHIT:     323097  iMISS:      59721  dACCESS:    1160311  dHIT:    1049009  dMISS:     111302  itACCESS:          0  itHIT:          0  itMISS:          0  dtACCESS:          0  dtHIT:          0  dtMISS:          0
cpu0_STLB RFO          ACCESS:          0  HIT:          0  MISS:          0  iACCESS:          0  iHIT:          0  iMISS:          0  dACCESS:          0  dHIT:          0  dMISS:          0  itACCESS:          0  itHIT:          0  itMISS:          0  dtACCESS:          0  dtHIT:          0  dtMISS:          0
cpu0_STLB PREFETCH     ACCESS:          0  HIT:          0  MISS:          0  iACCESS:          0  iHIT:          0  iMISS:          0  dACCESS:          0  dHIT:          0  dMISS:          0  itACCESS:          0  itHIT:          0  itMISS:          0  dtACCESS:          0  dtHIT:          0  dtMISS:          0
cpu0_STLB WRITE        ACCESS:          0  HIT:          0  MISS:          0  iACCESS:          0  iHIT:          0  iMISS:          0  dACCESS:          0  dHIT:          0  dMISS:          0  itACCESS:          0  itHIT:          0  itMISS:          0  dtACCESS:          0  dtHIT:          0  dtMISS:          0
cpu0_STLB TRANSLATION  ACCESS:          0  HIT:          0  MISS:          0  iACCESS:          0  iHIT:          0  iMISS:          0  dACCESS:          0  dHIT:          0  dMISS:          0  itACCESS:          0  itHIT:          0  itMISS:          0  dtACCESS:          0  dtHIT:          0  dtMISS:          0
cpu0_STLB PREFETCH  REQUESTED:          0  ISSUED:          0  CROSSED:          0  USEFUL:          0  USELESS:          0
cpu0_STLB AVERAGE iMISS LATENCY: 13.3499 cycles
cpu0_STLB AVERAGE dMISS LATENCY: 48.0857 cycles
cpu0_STLB AVERAGE itMISS LATENCY: 0 cycles
cpu0_STLB AVERAGE dtMISS LATENCY: 0 cycles
cpu0_STLB PAGE CROSSINGS (TLB HIT):         0 
cpu0_STLB PAGE CROSSINGS (TLB MISS):         0 
cpu0_STLB AVERAGE MISS LATENCY: 61.4355 cycles
cpu0_L1D TOTAL       ACCESS:   41764608  HIT:   38244949  MISS:    3519659  iACCESS:          0  iHIT:          0  iMISS:          0  dACCESS:   41535024  dHIT:   38224491  dMISS:    3310533  itACCESS:      64478  itHIT:       9437  itMISS:      55041  dtACCESS:     165106  dtHIT:      11021  dtMISS:     154085
cpu0_L1D LOAD         ACCESS:   19121966  HIT:   17620193  MISS:    1501773  iACCESS:          0  iHIT:          0  iMISS:          0  dACCESS:   19121966  dHIT:   17620193  dMISS:    1501773  itACCESS:          0  itHIT:          0  itMISS:          0  dtACCESS:          0  dtHIT:          0  dtMISS:          0
cpu0_L1D RFO          ACCESS:          0  HIT:          0  MISS:          0  iACCESS:          0  iHIT:          0  iMISS:          0  dACCESS:          0  dHIT:          0  dMISS:          0  itACCESS:          0  itHIT:          0  itMISS:          0  dtACCESS:          0  dtHIT:          0  dtMISS:          0
cpu0_L1D PREFETCH     ACCESS:   12196460  HIT:   10828193  MISS:    1368267  iACCESS:          0  iHIT:          0  iMISS:          0  dACCESS:   12196460  dHIT:   10828193  dMISS:    1368267  itACCESS:          0  itHIT:          0  itMISS:          0  dtACCESS:          0  dtHIT:          0  dtMISS:          0
cpu0_L1D WRITE        ACCESS:   10216598  HIT:    9776105  MISS:     440493  iACCESS:          0  iHIT:          0  iMISS:          0  dACCESS:   10216598  dHIT:    9776105  dMISS:     440493  itACCESS:          0  itHIT:          0  itMISS:          0  dtACCESS:          0  dtHIT:          0  dtMISS:          0
cpu0_L1D TRANSLATION  ACCESS:     229584  HIT:      20458  MISS:     209126  iACCESS:          0  iHIT:          0  iMISS:          0  dACCESS:          0  dHIT:          0  dMISS:          0  itACCESS:      64478  itHIT:       9437  itMISS:      55041  dtACCESS:     165106  dtHIT:      11021  dtMISS:     154085
cpu0_L1D PREFETCH  REQUESTED:   19121966  ISSUED:   16980806  CROSSED:          0  USEFUL:     309850  USELESS:     701607
cpu0_L1D AVERAGE iMISS LATENCY: 0 cycles
cpu0_L1D AVERAGE dMISS LATENCY: 36.336 cycles
cpu0_L1D AVERAGE itMISS LATENCY: 0.50395 cycles
cpu0_L1D AVERAGE dtMISS LATENCY: 1.68233 cycles
cpu0_L1D PAGE CROSSINGS (TLB HIT):         0 
cpu0_L1D PAGE CROSSINGS (TLB MISS):         0 
cpu0_L1D AVERAGE MISS LATENCY: 38.5223 cycles
cpu0_L2C TOTAL       ACCESS:    7041526  HIT:    1243319  MISS:    5798207  iACCESS:    3327183  iHIT:     698259  iMISS:    2628924  dACCESS:    3513434  dHIT:     382173  dMISS:    3131261  itACCESS:      55041  itHIT:      45468  itMISS:       9573  dtACCESS:     145868  dtHIT:     117419  dtMISS:      28449
cpu0_L2C LOAD         ACCESS:    1705905  HIT:     134440  MISS:    1571465  iACCESS:     778632  iHIT:      99032  iMISS:     679600  dACCESS:     927273  dHIT:      35408  dMISS:     891865  itACCESS:          0  itHIT:          0  itMISS:          0  dtACCESS:          0  dtHIT:          0  dtMISS:          0
cpu0_L2C RFO          ACCESS:     159317  HIT:       7603  MISS:     151714  iACCESS:          0  iHIT:          0  iMISS:          0  dACCESS:     159317  dHIT:       7603  dMISS:     151714  itACCESS:          0  itHIT:          0  itMISS:          0  dtACCESS:          0  dtHIT:          0  dtMISS:          0
cpu0_L2C PREFETCH     ACCESS:    4693399  HIT:     883619  MISS:    3809780  iACCESS:    2548551  iHIT:     599227  iMISS:    1949324  dACCESS:    2144848  dHIT:     284392  dMISS:    1860456  itACCESS:          0  itHIT:          0  itMISS:          0  dtACCESS:          0  dtHIT:          0  dtMISS:          0
cpu0_L2C WRITE        ACCESS:     281996  HIT:      54770  MISS:     227226  iACCESS:          0  iHIT:          0  iMISS:          0  dACCESS:     281996  dHIT:      54770  dMISS:     227226  itACCESS:          0  itHIT:          0  itMISS:          0  dtACCESS:          0  dtHIT:          0  dtMISS:          0
cpu0_L2C TRANSLATION  ACCESS:     200909  HIT:     162887  MISS:      38022  iACCESS:          0  iHIT:          0  iMISS:          0  dACCESS:          0  dHIT:          0  dMISS:          0  itACCESS:      55041  itHIT:      45468  itMISS:       9573  dtACCESS:     145868  dtHIT:     117419  dtMISS:      28449
cpu0_L2C PREFETCH  REQUESTED:    1398483  ISSUED:    1398483  CROSSED:          0  USEFUL:     428247  USELESS:     393921
cpu0_L2C AVERAGE iMISS LATENCY: 15.8994 cycles
cpu0_L2C AVERAGE dMISS LATENCY: 26.0683 cycles
cpu0_L2C AVERAGE itMISS LATENCY: 0.21863 cycles
cpu0_L2C AVERAGE dtMISS LATENCY: 0.788472 cycles
cpu0_L2C PAGE CROSSINGS (TLB HIT):         0 
cpu0_L2C PAGE CROSSINGS (TLB MISS):         0 
cpu0_L2C AVERAGE MISS LATENCY: 42.9747 cycles
LLC TOTAL       ACCESS:    5712152  HIT:    4801062  MISS:     911090  iACCESS:    2571143  iHIT:    2281342  iMISS:     289801  dACCESS:    3102987  dHIT:    2510774  dMISS:     592213  itACCESS:       9573  itHIT:       3286  itMISS:       6287  dtACCESS:      28449  dtHIT:       5660  dtMISS:      22789
LLC LOAD         ACCESS:    1569556  HIT:    1361307  MISS:     208249  iACCESS:     678197  iHIT:     615907  iMISS:      62290  dACCESS:     891359  dHIT:     745400  dMISS:     145959  itACCESS:          0  itHIT:          0  itMISS:          0  dtACCESS:          0  dtHIT:          0  dtMISS:          0
LLC RFO          ACCESS:     151705  HIT:     106926  MISS:      44779  iACCESS:          0  iHIT:          0  iMISS:          0  dACCESS:     151705  dHIT:     106926  dMISS:      44779  itACCESS:          0  itHIT:          0  itMISS:          0  dtACCESS:          0  dtHIT:          0  dtMISS:          0
LLC PREFETCH     ACCESS:    3693581  HIT:    3064600  MISS:     628981  iACCESS:    1892946  iHIT:    1665435  iMISS:     227511  dACCESS:    1800635  dHIT:    1399165  dMISS:     401470  itACCESS:          0  itHIT:          0  itMISS:          0  dtACCESS:          0  dtHIT:          0  dtMISS:          0
LLC WRITE        ACCESS:     259288  HIT:     259283  MISS:          5  iACCESS:          0  iHIT:          0  iMISS:          0  dACCESS:     259288  dHIT:     259283  dMISS:          5  itACCESS:          0  itHIT:          0  itMISS:          0  dtACCESS:          0  dtHIT:          0  dtMISS:          0
LLC TRANSLATION  ACCESS:      38022  HIT:       8946  MISS:      29076  iACCESS:          0  iHIT:          0  iMISS:          0  dACCESS:          0  dHIT:          0  dMISS:          0  itACCESS:       9573  itHIT:       3286  itMISS:       6287  dtACCESS:      28449  dtHIT:       5660  dtMISS:      22789
LLC PREFETCH  REQUESTED:          0  ISSUED:          0  CROSSED:          0  USEFUL:          0  USELESS:          0
LLC AVERAGE iMISS LATENCY: 46.7051 cycles
LLC AVERAGE dMISS LATENCY: 105.725 cycles
LLC AVERAGE itMISS LATENCY: 1.18527 cycles
LLC AVERAGE dtMISS LATENCY: 4.40251 cycles
LLC PAGE CROSSINGS (TLB HIT):         0 
LLC PAGE CROSSINGS (TLB MISS):         0 
LLC AVERAGE MISS LATENCY: 158.018 cycles

PageTableWalker TOTAL       ACCESS:      86753  
PageTableWalker AVERAGE LATENCY: 4.14482 cycles
PageTableWalker TOTAL LATENCY: 359575 cycles

DRAM Statistics
Channel 0
 RQ ROW_BUFFER_HIT:     266652
  ROW_BUFFER_MISS:     644341
 AVG DBUS CONGESTED CYCLE:     3.6463
 WQ ROW_BUFFER_HIT:      22102
  ROW_BUFFER_MISS:      31332  FULL:          0

