last_page:0x200000000000000
VMEM_RES_CAP:0x100000
PAGE_SIZE:4096
LOG2_PAGE_SIZE:12
LOG2_PAGE_TABLE_SIZE:9
page_table_levels:5
WARNING: physical memory size is smaller than virtual memory size
FDiP enabled with aggresivity 16

*** ChampSim Multicore Out-of-Order Simulator ***

Warmup Instructions: 50000000
Simulation Instructions: 100000000
Number of CPUs: 1
Small page size: 4096
Large page size: 2097152

CPU 0 Bimodal branch predictor
Basic BTB sets: 1024 ways: 8 indirect buffer size: 4096 RAS size: 64
Instruction page size distrubution: 0
Loading instruction page size distribution from /home/bsc/bsc018186/scratch/itp_asplos25_AE/dump/srv393_ap.pdst
Data page size distrubution: 0
Loading data page size distribution from /home/bsc/bsc018186/scratch/itp_asplos25_AE/dump/srv393_ap.pdst
cpu0_L2C IP-based stride prefetcher
cpu0_L1D next line prefetcher
cpu0_STLB using iTP with max lru@8
cpu0_STLB using iTP with instr@0 and data@2
Init sat counter with 3 bits (max:50).
cpu0_L1I next line prefetcher
Off-chip DRAM Size: 4 GiB Channels: 1 Width: 64-bit Data Rate: 3200 MT/s
Heartbeat CPU 0 instructions: 10000000 cycles: 2500163 heartbeat IPC: 3.99974 cumulative IPC: 3.99974 (Simulation time: 0 hr 0 min 38 sec) 
Heartbeat CPU 0 instructions: 20000001 cycles: 5000335 heartbeat IPC: 3.99973 cumulative IPC: 3.99974 (Simulation time: 0 hr 1 min 17 sec) 
Heartbeat CPU 0 instructions: 30000003 cycles: 7500365 heartbeat IPC: 3.99996 cumulative IPC: 3.99981 (Simulation time: 0 hr 1 min 57 sec) 
Heartbeat CPU 0 instructions: 40000003 cycles: 10000399 heartbeat IPC: 3.99995 cumulative IPC: 3.99985 (Simulation time: 0 hr 2 min 38 sec) 
Heartbeat CPU 0 instructions: 50000001 cycles: 12500527 heartbeat IPC: 3.9998 cumulative IPC: 3.99984 (Simulation time: 0 hr 3 min 19 sec) 
Warmup finished CPU 0 instructions: 50000001 cycles: 12500528 cumulative IPC: 3.99984 (Simulation time: 0 hr 3 min 19 sec) 

Warmup complete CPU 0 instructions: 50000001 cycles: 12500528 (Simulation time: 0 hr 3 min 19 sec) 

Heartbeat CPU 0 instructions: 60000002 cycles: 27108717 heartbeat IPC: 0.684548 cumulative IPC: 0.684548 (Simulation time: 0 hr 4 min 24 sec) 
Heartbeat CPU 0 instructions: 70000000 cycles: 42884687 heartbeat IPC: 0.633876 cumulative IPC: 0.658238 (Simulation time: 0 hr 5 min 30 sec) 
Heartbeat CPU 0 instructions: 80000000 cycles: 57947873 heartbeat IPC: 0.663871 cumulative IPC: 0.660105 (Simulation time: 0 hr 6 min 33 sec) 
Heartbeat CPU 0 instructions: 90000000 cycles: 74221313 heartbeat IPC: 0.614499 cumulative IPC: 0.64808 (Simulation time: 0 hr 7 min 38 sec) 
Heartbeat CPU 0 instructions: 100000000 cycles: 89220966 heartbeat IPC: 0.666683 cumulative IPC: 0.651717 (Simulation time: 0 hr 8 min 41 sec) 
*** Reached end of trace: /gpfs/projects/bsc18/MN4/bsc18/romol/ChampSim/traces/qualcomm_srv/srv393_ap.champsimtrace.xz
Heartbeat CPU 0 instructions: 110000002 cycles: 104263631 heartbeat IPC: 0.664776 cumulative IPC: 0.653858 (Simulation time: 0 hr 9 min 45 sec) 
Heartbeat CPU 0 instructions: 120000002 cycles: 119925466 heartbeat IPC: 0.638495 cumulative IPC: 0.651618 (Simulation time: 0 hr 10 min 49 sec) 
Heartbeat CPU 0 instructions: 130000000 cycles: 134352247 heartbeat IPC: 0.693156 cumulative IPC: 0.656536 (Simulation time: 0 hr 11 min 53 sec) 
Heartbeat CPU 0 instructions: 140000003 cycles: 148837045 heartbeat IPC: 0.69038 cumulative IPC: 0.660132 (Simulation time: 0 hr 12 min 57 sec) 
Heartbeat CPU 0 instructions: 150000004 cycles: 163416116 heartbeat IPC: 0.685915 cumulative IPC: 0.662623 (Simulation time: 0 hr 14 min 0 sec) 
Simulation finished CPU 0 instructions: 100000003 cycles: 150915589 cumulative IPC: 0.662623 (Simulation time: 0 hr 14 min 0 sec) 

Simulation complete CPU 0 instructions: 100000003 cycles: 150915589 (Simulation time: 0 hr 14 min 0 sec) 


ChampSim completed all CPUs

Saving instructions large page distribution to /home/bsc/bsc018186/scratch/itp_asplos25_AE/dump/srv393_ap.pdst...
Saving data large page distribution to /home/bsc/bsc018186/scratch/itp_asplos25_AE/dump/srv393_ap.pdst...
=== Simulation ===
CPU 0 runs /gpfs/projects/bsc18/MN4/bsc18/romol/ChampSim/traces/qualcomm_srv/srv393_ap.champsimtrace.xz

Region of Interest Statistics

CPU 0 cumulative IPC: 0.662623 instructions: 100000003 cycles: 150915589
CPU 0 Branch Prediction Accuracy: 83.2997% MPKI: 29.8572 Average ROB Occupancy at Mispredict: 12.915
Branch type MPKI
BRANCH_DIRECT_JUMP: 1.03688
BRANCH_INDIRECT: 15.3649
BRANCH_CONDITIONAL: 9.72701
BRANCH_DIRECT_CALL: 1.86547
BRANCH_INDIRECT_CALL: 0.50973
BRANCH_RETURN: 1.35326

Instructions large pages: 0
Instructions small pages: 1028
Large page distribution for instructions: 0%

Data large pages: 0
Data small pages: 10369
Large page distribution for data: 0%

cpu0_L1I TOTAL       ACCESS:   34664776  HIT:   26941754  MISS:    7723022  iACCESS:   34664776  iHIT:   26941754  iMISS:    7723022  dACCESS:          0  dHIT:          0  dMISS:          0  itACCESS:          0  itHIT:          0  itMISS:          0  dtACCESS:          0  dtHIT:          0  dtMISS:          0
cpu0_L1I LOAD         ACCESS:   10182612  HIT:    8009437  MISS:    2173175  iACCESS:   10182612  iHIT:    8009437  iMISS:    2173175  dACCESS:          0  dHIT:          0  dMISS:          0  itACCESS:          0  itHIT:          0  itMISS:          0  dtACCESS:          0  dtHIT:          0  dtMISS:          0
cpu0_L1I RFO          ACCESS:          0  HIT:          0  MISS:          0  iACCESS:          0  iHIT:          0  iMISS:          0  dACCESS:          0  dHIT:          0  dMISS:          0  itACCESS:          0  itHIT:          0  itMISS:          0  dtACCESS:          0  dtHIT:          0  dtMISS:          0
cpu0_L1I PREFETCH     ACCESS:   24482164  HIT:   18932317  MISS:    5549847  iACCESS:   24482164  iHIT:   18932317  iMISS:    5549847  dACCESS:          0  dHIT:          0  dMISS:          0  itACCESS:          0  itHIT:          0  itMISS:          0  dtACCESS:          0  dtHIT:          0  dtMISS:          0
cpu0_L1I WRITE        ACCESS:          0  HIT:          0  MISS:          0  iACCESS:          0  iHIT:          0  iMISS:          0  dACCESS:          0  dHIT:          0  dMISS:          0  itACCESS:          0  itHIT:          0  itMISS:          0  dtACCESS:          0  dtHIT:          0  dtMISS:          0
cpu0_L1I TRANSLATION  ACCESS:          0  HIT:          0  MISS:          0  iACCESS:          0  iHIT:          0  iMISS:          0  dACCESS:          0  dHIT:          0  dMISS:          0  itACCESS:          0  itHIT:          0  itMISS:          0  dtACCESS:          0  dtHIT:          0  dtMISS:          0
cpu0_L1I PREFETCH  REQUESTED:   27063958  ISSUED:   27063958  CROSSED:          0  USEFUL:    1881429  USELESS:     623857
cpu0_L1I AVERAGE iMISS LATENCY: 13.1656 cycles
cpu0_L1I AVERAGE dMISS LATENCY: 0 cycles
cpu0_L1I AVERAGE itMISS LATENCY: 0 cycles
cpu0_L1I AVERAGE dtMISS LATENCY: 0 cycles
cpu0_L1I PAGE CROSSINGS (TLB HIT):         0 
cpu0_L1I PAGE CROSSINGS (TLB MISS):         0 
cpu0_L1I AVERAGE MISS LATENCY: 13.1656 cycles
cpu0_ITLB TOTAL       ACCESS:   28951984  HIT:   26987769  MISS:    1964215  iACCESS:   28951984  iHIT:   26987769  iMISS:    1964215  dACCESS:          0  dHIT:          0  dMISS:          0  itACCESS:          0  itHIT:          0  itMISS:          0  dtACCESS:          0  dtHIT:          0  dtMISS:          0
cpu0_ITLB LOAD         ACCESS:   28951984  HIT:   26987769  MISS:    1964215  iACCESS:   28951984  iHIT:   26987769  iMISS:    1964215  dACCESS:          0  dHIT:          0  dMISS:          0  itACCESS:          0  itHIT:          0  itMISS:          0  dtACCESS:          0  dtHIT:          0  dtMISS:          0
cpu0_ITLB RFO          ACCESS:          0  HIT:          0  MISS:          0  iACCESS:          0  iHIT:          0  iMISS:          0  dACCESS:          0  dHIT:          0  dMISS:          0  itACCESS:          0  itHIT:          0  itMISS:          0  dtACCESS:          0  dtHIT:          0  dtMISS:          0
cpu0_ITLB PREFETCH     ACCESS:          0  HIT:          0  MISS:          0  iACCESS:          0  iHIT:          0  iMISS:          0  dACCESS:          0  dHIT:          0  dMISS:          0  itACCESS:          0  itHIT:          0  itMISS:          0  dtACCESS:          0  dtHIT:          0  dtMISS:          0
cpu0_ITLB WRITE        ACCESS:          0  HIT:          0  MISS:          0  iACCESS:          0  iHIT:          0  iMISS:          0  dACCESS:          0  dHIT:          0  dMISS:          0  itACCESS:          0  itHIT:          0  itMISS:          0  dtACCESS:          0  dtHIT:          0  dtMISS:          0
cpu0_ITLB TRANSLATION  ACCESS:          0  HIT:          0  MISS:          0  iACCESS:          0  iHIT:          0  iMISS:          0  dACCESS:          0  dHIT:          0  dMISS:          0  itACCESS:          0  itHIT:          0  itMISS:          0  dtACCESS:          0  dtHIT:          0  dtMISS:          0
cpu0_ITLB PREFETCH  REQUESTED:          0  ISSUED:          0  CROSSED:          0  USEFUL:     319447  USELESS:      66762
cpu0_ITLB AVERAGE iMISS LATENCY: 2.268 cycles
cpu0_ITLB AVERAGE dMISS LATENCY: 0 cycles
cpu0_ITLB AVERAGE itMISS LATENCY: 0 cycles
cpu0_ITLB AVERAGE dtMISS LATENCY: 0 cycles
cpu0_ITLB PAGE CROSSINGS (TLB HIT):         0 
cpu0_ITLB PAGE CROSSINGS (TLB MISS):         0 
cpu0_ITLB AVERAGE MISS LATENCY: 2.268 cycles
cpu0_DTLB TOTAL       ACCESS:   27675644  HIT:   25840871  MISS:    1834773  iACCESS:          0  iHIT:          0  iMISS:          0  dACCESS:   27675644  dHIT:   25840871  dMISS:    1834773  itACCESS:          0  itHIT:          0  itMISS:          0  dtACCESS:          0  dtHIT:          0  dtMISS:          0
cpu0_DTLB LOAD         ACCESS:   27675644  HIT:   25840871  MISS:    1834773  iACCESS:          0  iHIT:          0  iMISS:          0  dACCESS:   27675644  dHIT:   25840871  dMISS:    1834773  itACCESS:          0  itHIT:          0  itMISS:          0  dtACCESS:          0  dtHIT:          0  dtMISS:          0
cpu0_DTLB RFO          ACCESS:          0  HIT:          0  MISS:          0  iACCESS:          0  iHIT:          0  iMISS:          0  dACCESS:          0  dHIT:          0  dMISS:          0  itACCESS:          0  itHIT:          0  itMISS:          0  dtACCESS:          0  dtHIT:          0  dtMISS:          0
cpu0_DTLB PREFETCH     ACCESS:          0  HIT:          0  MISS:          0  iACCESS:          0  iHIT:          0  iMISS:          0  dACCESS:          0  dHIT:          0  dMISS:          0  itACCESS:          0  itHIT:          0  itMISS:          0  dtACCESS:          0  dtHIT:          0  dtMISS:          0
cpu0_DTLB WRITE        ACCESS:          0  HIT:          0  MISS:          0  iACCESS:          0  iHIT:          0  iMISS:          0  dACCESS:          0  dHIT:          0  dMISS:          0  itACCESS:          0  itHIT:          0  itMISS:          0  dtACCESS:          0  dtHIT:          0  dtMISS:          0
cpu0_DTLB TRANSLATION  ACCESS:          0  HIT:          0  MISS:          0  iACCESS:          0  iHIT:          0  iMISS:          0  dACCESS:          0  dHIT:          0  dMISS:          0  itACCESS:          0  itHIT:          0  itMISS:          0  dtACCESS:          0  dtHIT:          0  dtMISS:          0
cpu0_DTLB PREFETCH  REQUESTED:          0  ISSUED:          0  CROSSED:          0  USEFUL:          0  USELESS:          0
cpu0_DTLB AVERAGE iMISS LATENCY: 0 cycles
cpu0_DTLB AVERAGE dMISS LATENCY: 18.4538 cycles
cpu0_DTLB AVERAGE itMISS LATENCY: 0 cycles
cpu0_DTLB AVERAGE dtMISS LATENCY: 0 cycles
cpu0_DTLB PAGE CROSSINGS (TLB HIT):         0 
cpu0_DTLB PAGE CROSSINGS (TLB MISS):         0 
cpu0_DTLB AVERAGE MISS LATENCY: 18.4538 cycles
cpu0_STLB TOTAL       ACCESS:    1498793  HIT:    1349546  MISS:     149247  iACCESS:     386211  iHIT:     376868  iMISS:       9343  dACCESS:    1112582  dHIT:     972678  dMISS:     139904  itACCESS:          0  itHIT:          0  itMISS:          0  dtACCESS:          0  dtHIT:          0  dtMISS:          0
cpu0_STLB LOAD         ACCESS:    1498793  HIT:    1349546  MISS:     149247  iACCESS:     386211  iHIT:     376868  iMISS:       9343  dACCESS:    1112582  dHIT:     972678  dMISS:     139904  itACCESS:          0  itHIT:          0  itMISS:          0  dtACCESS:          0  dtHIT:          0  dtMISS:          0
cpu0_STLB RFO          ACCESS:          0  HIT:          0  MISS:          0  iACCESS:          0  iHIT:          0  iMISS:          0  dACCESS:          0  dHIT:          0  dMISS:          0  itACCESS:          0  itHIT:          0  itMISS:          0  dtACCESS:          0  dtHIT:          0  dtMISS:          0
cpu0_STLB PREFETCH     ACCESS:          0  HIT:          0  MISS:          0  iACCESS:          0  iHIT:          0  iMISS:          0  dACCESS:          0  dHIT:          0  dMISS:          0  itACCESS:          0  itHIT:          0  itMISS:          0  dtACCESS:          0  dtHIT:          0  dtMISS:          0
cpu0_STLB WRITE        ACCESS:          0  HIT:          0  MISS:          0  iACCESS:          0  iHIT:          0  iMISS:          0  dACCESS:          0  dHIT:          0  dMISS:          0  itACCESS:          0  itHIT:          0  itMISS:          0  dtACCESS:          0  dtHIT:          0  dtMISS:          0
cpu0_STLB TRANSLATION  ACCESS:          0  HIT:          0  MISS:          0  iACCESS:          0  iHIT:          0  iMISS:          0  dACCESS:          0  dHIT:          0  dMISS:          0  itACCESS:          0  itHIT:          0  itMISS:          0  dtACCESS:          0  dtHIT:          0  dtMISS:          0
cpu0_STLB PREFETCH  REQUESTED:          0  ISSUED:          0  CROSSED:          0  USEFUL:          0  USELESS:          0
cpu0_STLB AVERAGE iMISS LATENCY: 9.74557 cycles
cpu0_STLB AVERAGE dMISS LATENCY: 167.145 cycles
cpu0_STLB AVERAGE itMISS LATENCY: 0 cycles
cpu0_STLB AVERAGE dtMISS LATENCY: 0 cycles
cpu0_STLB PAGE CROSSINGS (TLB HIT):         0 
cpu0_STLB PAGE CROSSINGS (TLB MISS):         0 
cpu0_STLB AVERAGE MISS LATENCY: 176.891 cycles
cpu0_L1D TOTAL       ACCESS:   41424632  HIT:   37968180  MISS:    3456452  iACCESS:          0  iHIT:          0  iMISS:          0  dACCESS:   41202367  dHIT:   37953871  dMISS:    3248496  itACCESS:      11644  itHIT:       1115  itMISS:      10529  dtACCESS:     210621  dtHIT:      13194  dtMISS:     197427
cpu0_L1D LOAD         ACCESS:   18927233  HIT:   17451117  MISS:    1476116  iACCESS:          0  iHIT:          0  iMISS:          0  dACCESS:   18927233  dHIT:   17451117  dMISS:    1476116  itACCESS:          0  itHIT:          0  itMISS:          0  dtACCESS:          0  dtHIT:          0  dtMISS:          0
cpu0_L1D RFO          ACCESS:          0  HIT:          0  MISS:          0  iACCESS:          0  iHIT:          0  iMISS:          0  dACCESS:          0  dHIT:          0  dMISS:          0  itACCESS:          0  itHIT:          0  itMISS:          0  dtACCESS:          0  dtHIT:          0  dtMISS:          0
cpu0_L1D PREFETCH     ACCESS:   12097542  HIT:   10755721  MISS:    1341821  iACCESS:          0  iHIT:          0  iMISS:          0  dACCESS:   12097542  dHIT:   10755721  dMISS:    1341821  itACCESS:          0  itHIT:          0  itMISS:          0  dtACCESS:          0  dtHIT:          0  dtMISS:          0
cpu0_L1D WRITE        ACCESS:   10177592  HIT:    9747033  MISS:     430559  iACCESS:          0  iHIT:          0  iMISS:          0  dACCESS:   10177592  dHIT:    9747033  dMISS:     430559  itACCESS:          0  itHIT:          0  itMISS:          0  dtACCESS:          0  dtHIT:          0  dtMISS:          0
cpu0_L1D TRANSLATION  ACCESS:     222265  HIT:      14309  MISS:     207956  iACCESS:          0  iHIT:          0  iMISS:          0  dACCESS:          0  dHIT:          0  dMISS:          0  itACCESS:      11644  itHIT:       1115  itMISS:      10529  dtACCESS:     210621  dtHIT:      13194  dtMISS:     197427
cpu0_L1D PREFETCH  REQUESTED:   18927233  ISSUED:   16865497  CROSSED:          0  USEFUL:     303792  USELESS:     694322
cpu0_L1D AVERAGE iMISS LATENCY: 0 cycles
cpu0_L1D AVERAGE dMISS LATENCY: 33.8915 cycles
cpu0_L1D AVERAGE itMISS LATENCY: 0.3903 cycles
cpu0_L1D AVERAGE dtMISS LATENCY: 6.37029 cycles
cpu0_L1D PAGE CROSSINGS (TLB HIT):         0 
cpu0_L1D PAGE CROSSINGS (TLB MISS):         0 
cpu0_L1D AVERAGE MISS LATENCY: 40.6521 cycles
cpu0_L2C TOTAL       ACCESS:    6875142  HIT:    3957053  MISS:    2918089  iACCESS:    3256189  iHIT:    2157247  iMISS:    1098942  dACCESS:    3422490  dHIT:    1764745  dMISS:    1657745  itACCESS:      10451  itHIT:       1805  itMISS:       8646  dtACCESS:     186012  dtHIT:      33256  dtMISS:     152756
cpu0_L2C LOAD         ACCESS:    1707350  HIT:    1009216  MISS:     698134  iACCESS:     786213  iHIT:     544362  iMISS:     241851  dACCESS:     921137  dHIT:     464854  dMISS:     456283  itACCESS:          0  itHIT:          0  itMISS:          0  dtACCESS:          0  dtHIT:          0  dtMISS:          0
cpu0_L2C RFO          ACCESS:     155640  HIT:      70494  MISS:      85146  iACCESS:          0  iHIT:          0  iMISS:          0  dACCESS:     155640  dHIT:      70494  dMISS:      85146  itACCESS:          0  itHIT:          0  itMISS:          0  dtACCESS:          0  dtHIT:          0  dtMISS:          0
cpu0_L2C PREFETCH     ACCESS:    4533815  HIT:    2561382  MISS:    1972433  iACCESS:    2469976  iHIT:    1612885  iMISS:     857091  dACCESS:    2063839  dHIT:     948497  dMISS:    1115342  itACCESS:          0  itHIT:          0  itMISS:          0  dtACCESS:          0  dtHIT:          0  dtMISS:          0
cpu0_L2C WRITE        ACCESS:     281874  HIT:     280900  MISS:        974  iACCESS:          0  iHIT:          0  iMISS:          0  dACCESS:     281874  dHIT:     280900  dMISS:        974  itACCESS:          0  itHIT:          0  itMISS:          0  dtACCESS:          0  dtHIT:          0  dtMISS:          0
cpu0_L2C TRANSLATION  ACCESS:     196463  HIT:      35061  MISS:     161402  iACCESS:          0  iHIT:          0  iMISS:          0  dACCESS:          0  dHIT:          0  dMISS:          0  itACCESS:      10451  itHIT:       1805  itMISS:       8646  dtACCESS:     186012  dtHIT:      33256  dtMISS:     152756
cpu0_L2C PREFETCH  REQUESTED:    1308106  ISSUED:    1308106  CROSSED:          0  USEFUL:     306794  USELESS:     226795
cpu0_L2C AVERAGE iMISS LATENCY: 24.8983 cycles
cpu0_L2C AVERAGE dMISS LATENCY: 46.8863 cycles
cpu0_L2C AVERAGE itMISS LATENCY: 0.427011 cycles
cpu0_L2C AVERAGE dtMISS LATENCY: 6.91489 cycles
cpu0_L2C PAGE CROSSINGS (TLB HIT):         0 
cpu0_L2C PAGE CROSSINGS (TLB MISS):         0 
cpu0_L2C AVERAGE MISS LATENCY: 79.1264 cycles
LLC TOTAL       ACCESS:    2949322  HIT:    1835280  MISS:    1114042  iACCESS:    1046511  iHIT:     688243  iMISS:     358268  dACCESS:    1741409  dHIT:    1086910  dMISS:     654499  itACCESS:       8646  itHIT:       2470  itMISS:       6176  dtACCESS:     152756  dtHIT:      57657  dtMISS:      95099
LLC LOAD         ACCESS:     696922  HIT:     452692  MISS:     244230  iACCESS:     240871  iHIT:     164268  iMISS:      76603  dACCESS:     456051  dHIT:     288424  dMISS:     167627  itACCESS:          0  itHIT:          0  itMISS:          0  dtACCESS:          0  dtHIT:          0  dtMISS:          0
LLC RFO          ACCESS:      85139  HIT:      43500  MISS:      41639  iACCESS:          0  iHIT:          0  iMISS:          0  dACCESS:      85139  dHIT:      43500  dMISS:      41639  itACCESS:          0  itHIT:          0  itMISS:          0  dtACCESS:          0  dtHIT:          0  dtMISS:          0
LLC PREFETCH     ACCESS:    1868511  HIT:    1147335  MISS:     721176  iACCESS:     805640  iHIT:     523975  iMISS:     281665  dACCESS:    1062871  dHIT:     623360  dMISS:     439511  itACCESS:          0  itHIT:          0  itMISS:          0  dtACCESS:          0  dtHIT:          0  dtMISS:          0
LLC WRITE        ACCESS:     137348  HIT:     131626  MISS:       5722  iACCESS:          0  iHIT:          0  iMISS:          0  dACCESS:     137348  dHIT:     131626  dMISS:       5722  itACCESS:          0  itHIT:          0  itMISS:          0  dtACCESS:          0  dtHIT:          0  dtMISS:          0
LLC TRANSLATION  ACCESS:     161402  HIT:      60127  MISS:     101275  iACCESS:          0  iHIT:          0  iMISS:          0  dACCESS:          0  dHIT:          0  dMISS:          0  itACCESS:       8646  itHIT:       2470  itMISS:       6176  dtACCESS:     152756  dtHIT:      57657  dtMISS:      95099
LLC PREFETCH  REQUESTED:          0  ISSUED:          0  CROSSED:          0  USEFUL:          0  USELESS:          0
LLC AVERAGE iMISS LATENCY: 46.9762 cycles
LLC AVERAGE dMISS LATENCY: 95.1402 cycles
LLC AVERAGE itMISS LATENCY: 0.965978 cycles
LLC AVERAGE dtMISS LATENCY: 15.4291 cycles
LLC PAGE CROSSINGS (TLB HIT):         0 
LLC PAGE CROSSINGS (TLB MISS):         0 
LLC AVERAGE MISS LATENCY: 158.512 cycles

PageTableWalker TOTAL       ACCESS:      73596  
PageTableWalker AVERAGE LATENCY: 5.69902 cycles
PageTableWalker TOTAL LATENCY: 419425 cycles

DRAM Statistics
Channel 0
 RQ ROW_BUFFER_HIT:     310359
  ROW_BUFFER_MISS:     797845
 AVG DBUS CONGESTED CYCLE:    3.62716
 WQ ROW_BUFFER_HIT:      22431
  ROW_BUFFER_MISS:      22008  FULL:          0

