last_page:0x200000000000000
VMEM_RES_CAP:0x100000
PAGE_SIZE:4096
LOG2_PAGE_SIZE:12
LOG2_PAGE_TABLE_SIZE:9
page_table_levels:5
WARNING: physical memory size is smaller than virtual memory size
FDiP enabled with aggresivity 16

*** ChampSim Multicore Out-of-Order Simulator ***

Warmup Instructions: 50000000
Simulation Instructions: 100000000
Number of CPUs: 1
Small page size: 4096
Large page size: 2097152

CPU 0 Bimodal branch predictor
Basic BTB sets: 1024 ways: 8 indirect buffer size: 4096 RAS size: 64
Instruction page size distrubution: 0
Loading instruction page size distribution from /home/bsc/bsc018186/scratch/itp_asplos25_AE/dump/srv349_ap.pdst
Data page size distrubution: 0
Loading data page size distribution from /home/bsc/bsc018186/scratch/itp_asplos25_AE/dump/srv349_ap.pdst
cpu0_L2C IP-based stride prefetcher
cpu0_L1D next line prefetcher
cpu0_STLB using iTP with max lru@8
cpu0_STLB using iTP with instr@0 and data@2
Init sat counter with 3 bits (max:50).
cpu0_L1I next line prefetcher
Off-chip DRAM Size: 4 GiB Channels: 1 Width: 64-bit Data Rate: 3200 MT/s
Heartbeat CPU 0 instructions: 10000002 cycles: 2501833 heartbeat IPC: 3.99708 cumulative IPC: 3.99708 (Simulation time: 0 hr 0 min 38 sec) 
Heartbeat CPU 0 instructions: 20000000 cycles: 5001834 heartbeat IPC: 4 cumulative IPC: 3.99854 (Simulation time: 0 hr 1 min 17 sec) 
Heartbeat CPU 0 instructions: 30000002 cycles: 7501856 heartbeat IPC: 3.99997 cumulative IPC: 3.99902 (Simulation time: 0 hr 1 min 57 sec) 
Heartbeat CPU 0 instructions: 40000002 cycles: 10001865 heartbeat IPC: 3.99999 cumulative IPC: 3.99926 (Simulation time: 0 hr 2 min 38 sec) 
Heartbeat CPU 0 instructions: 50000000 cycles: 12501937 heartbeat IPC: 3.99989 cumulative IPC: 3.99939 (Simulation time: 0 hr 3 min 19 sec) 
Warmup finished CPU 0 instructions: 50000000 cycles: 12501938 cumulative IPC: 3.99938 (Simulation time: 0 hr 3 min 19 sec) 

Warmup complete CPU 0 instructions: 50000000 cycles: 12501938 (Simulation time: 0 hr 3 min 19 sec) 

Heartbeat CPU 0 instructions: 60000004 cycles: 27250924 heartbeat IPC: 0.678013 cumulative IPC: 0.678013 (Simulation time: 0 hr 4 min 22 sec) 
Heartbeat CPU 0 instructions: 70000000 cycles: 42402632 heartbeat IPC: 0.659992 cumulative IPC: 0.668881 (Simulation time: 0 hr 5 min 26 sec) 
Heartbeat CPU 0 instructions: 80000002 cycles: 56943414 heartbeat IPC: 0.687722 cumulative IPC: 0.675046 (Simulation time: 0 hr 6 min 30 sec) 
Heartbeat CPU 0 instructions: 90000000 cycles: 71715346 heartbeat IPC: 0.67696 cumulative IPC: 0.675523 (Simulation time: 0 hr 7 min 34 sec) 
Heartbeat CPU 0 instructions: 100000002 cycles: 86005812 heartbeat IPC: 0.699768 cumulative IPC: 0.680237 (Simulation time: 0 hr 8 min 37 sec) 
*** Reached end of trace: /gpfs/projects/bsc18/MN4/bsc18/romol/ChampSim/traces/qualcomm_srv/srv349_ap.champsimtrace.xz
Heartbeat CPU 0 instructions: 110000004 cycles: 100897901 heartbeat IPC: 0.671498 cumulative IPC: 0.678765 (Simulation time: 0 hr 9 min 41 sec) 
Heartbeat CPU 0 instructions: 120000001 cycles: 115158355 heartbeat IPC: 0.70124 cumulative IPC: 0.681887 (Simulation time: 0 hr 10 min 44 sec) 
Heartbeat CPU 0 instructions: 130000000 cycles: 129671210 heartbeat IPC: 0.689045 cumulative IPC: 0.682773 (Simulation time: 0 hr 11 min 47 sec) 
Heartbeat CPU 0 instructions: 140000002 cycles: 143847397 heartbeat IPC: 0.705409 cumulative IPC: 0.685216 (Simulation time: 0 hr 12 min 48 sec) 
Heartbeat CPU 0 instructions: 150000001 cycles: 159139870 heartbeat IPC: 0.653917 cumulative IPC: 0.681952 (Simulation time: 0 hr 13 min 51 sec) 
Simulation finished CPU 0 instructions: 100000001 cycles: 146637933 cumulative IPC: 0.681952 (Simulation time: 0 hr 13 min 51 sec) 

Simulation complete CPU 0 instructions: 100000001 cycles: 146637933 (Simulation time: 0 hr 13 min 51 sec) 


ChampSim completed all CPUs

Saving instructions large page distribution to /home/bsc/bsc018186/scratch/itp_asplos25_AE/dump/srv349_ap.pdst...
Saving data large page distribution to /home/bsc/bsc018186/scratch/itp_asplos25_AE/dump/srv349_ap.pdst...
=== Simulation ===
CPU 0 runs /gpfs/projects/bsc18/MN4/bsc18/romol/ChampSim/traces/qualcomm_srv/srv349_ap.champsimtrace.xz

Region of Interest Statistics

CPU 0 cumulative IPC: 0.681952 instructions: 100000001 cycles: 146637933
CPU 0 Branch Prediction Accuracy: 83.4067% MPKI: 29.7997 Average ROB Occupancy at Mispredict: 13.0405
Branch type MPKI
BRANCH_DIRECT_JUMP: 0.9582
BRANCH_INDIRECT: 15.4322
BRANCH_CONDITIONAL: 9.74969
BRANCH_DIRECT_CALL: 1.83067
BRANCH_INDIRECT_CALL: 0.49843
BRANCH_RETURN: 1.33048

Instructions large pages: 0
Instructions small pages: 10052
Large page distribution for instructions: 0%

Data large pages: 0
Data small pages: 9108
Large page distribution for data: 0%

cpu0_L1I TOTAL       ACCESS:   34538256  HIT:   26646601  MISS:    7891655  iACCESS:   34538256  iHIT:   26646601  iMISS:    7891655  dACCESS:          0  dHIT:          0  dMISS:          0  itACCESS:          0  itHIT:          0  itMISS:          0  dtACCESS:          0  dtHIT:          0  dtMISS:          0
cpu0_L1I LOAD         ACCESS:   10068853  HIT:    7849853  MISS:    2219000  iACCESS:   10068853  iHIT:    7849853  iMISS:    2219000  dACCESS:          0  dHIT:          0  dMISS:          0  itACCESS:          0  itHIT:          0  itMISS:          0  dtACCESS:          0  dtHIT:          0  dtMISS:          0
cpu0_L1I RFO          ACCESS:          0  HIT:          0  MISS:          0  iACCESS:          0  iHIT:          0  iMISS:          0  dACCESS:          0  dHIT:          0  dMISS:          0  itACCESS:          0  itHIT:          0  itMISS:          0  dtACCESS:          0  dtHIT:          0  dtMISS:          0
cpu0_L1I PREFETCH     ACCESS:   24469403  HIT:   18796748  MISS:    5672655  iACCESS:   24469403  iHIT:   18796748  iMISS:    5672655  dACCESS:          0  dHIT:          0  dMISS:          0  itACCESS:          0  itHIT:          0  itMISS:          0  dtACCESS:          0  dtHIT:          0  dtMISS:          0
cpu0_L1I WRITE        ACCESS:          0  HIT:          0  MISS:          0  iACCESS:          0  iHIT:          0  iMISS:          0  dACCESS:          0  dHIT:          0  dMISS:          0  itACCESS:          0  itHIT:          0  itMISS:          0  dtACCESS:          0  dtHIT:          0  dtMISS:          0
cpu0_L1I TRANSLATION  ACCESS:          0  HIT:          0  MISS:          0  iACCESS:          0  iHIT:          0  iMISS:          0  dACCESS:          0  dHIT:          0  dMISS:          0  itACCESS:          0  itHIT:          0  itMISS:          0  dtACCESS:          0  dtHIT:          0  dtMISS:          0
cpu0_L1I PREFETCH  REQUESTED:   26964055  ISSUED:   26964055  CROSSED:          0  USEFUL:    1925180  USELESS:     635706
cpu0_L1I AVERAGE iMISS LATENCY: 12.3631 cycles
cpu0_L1I AVERAGE dMISS LATENCY: 0 cycles
cpu0_L1I AVERAGE itMISS LATENCY: 0 cycles
cpu0_L1I AVERAGE dtMISS LATENCY: 0 cycles
cpu0_L1I PAGE CROSSINGS (TLB HIT):         0 
cpu0_L1I PAGE CROSSINGS (TLB MISS):         0 
cpu0_L1I AVERAGE MISS LATENCY: 12.3631 cycles
cpu0_ITLB TOTAL       ACCESS:   28888283  HIT:   26888008  MISS:    2000275  iACCESS:   28888283  iHIT:   26888008  iMISS:    2000275  dACCESS:          0  dHIT:          0  dMISS:          0  itACCESS:          0  itHIT:          0  itMISS:          0  dtACCESS:          0  dtHIT:          0  dtMISS:          0
cpu0_ITLB LOAD         ACCESS:   28888283  HIT:   26888008  MISS:    2000275  iACCESS:   28888283  iHIT:   26888008  iMISS:    2000275  dACCESS:          0  dHIT:          0  dMISS:          0  itACCESS:          0  itHIT:          0  itMISS:          0  dtACCESS:          0  dtHIT:          0  dtMISS:          0
cpu0_ITLB RFO          ACCESS:          0  HIT:          0  MISS:          0  iACCESS:          0  iHIT:          0  iMISS:          0  dACCESS:          0  dHIT:          0  dMISS:          0  itACCESS:          0  itHIT:          0  itMISS:          0  dtACCESS:          0  dtHIT:          0  dtMISS:          0
cpu0_ITLB PREFETCH     ACCESS:          0  HIT:          0  MISS:          0  iACCESS:          0  iHIT:          0  iMISS:          0  dACCESS:          0  dHIT:          0  dMISS:          0  itACCESS:          0  itHIT:          0  itMISS:          0  dtACCESS:          0  dtHIT:          0  dtMISS:          0
cpu0_ITLB WRITE        ACCESS:          0  HIT:          0  MISS:          0  iACCESS:          0  iHIT:          0  iMISS:          0  dACCESS:          0  dHIT:          0  dMISS:          0  itACCESS:          0  itHIT:          0  itMISS:          0  dtACCESS:          0  dtHIT:          0  dtMISS:          0
cpu0_ITLB TRANSLATION  ACCESS:          0  HIT:          0  MISS:          0  iACCESS:          0  iHIT:          0  iMISS:          0  dACCESS:          0  dHIT:          0  dMISS:          0  itACCESS:          0  itHIT:          0  itMISS:          0  dtACCESS:          0  dtHIT:          0  dtMISS:          0
cpu0_ITLB PREFETCH  REQUESTED:          0  ISSUED:          0  CROSSED:          0  USEFUL:     324909  USELESS:      63036
cpu0_ITLB AVERAGE iMISS LATENCY: 2.00146 cycles
cpu0_ITLB AVERAGE dMISS LATENCY: 0 cycles
cpu0_ITLB AVERAGE itMISS LATENCY: 0 cycles
cpu0_ITLB AVERAGE dtMISS LATENCY: 0 cycles
cpu0_ITLB PAGE CROSSINGS (TLB HIT):         0 
cpu0_ITLB PAGE CROSSINGS (TLB MISS):         0 
cpu0_ITLB AVERAGE MISS LATENCY: 2.00146 cycles
cpu0_DTLB TOTAL       ACCESS:   27711448  HIT:   25596293  MISS:    2115155  iACCESS:          0  iHIT:          0  iMISS:          0  dACCESS:   27711448  dHIT:   25596293  dMISS:    2115155  itACCESS:          0  itHIT:          0  itMISS:          0  dtACCESS:          0  dtHIT:          0  dtMISS:          0
cpu0_DTLB LOAD         ACCESS:   27711448  HIT:   25596293  MISS:    2115155  iACCESS:          0  iHIT:          0  iMISS:          0  dACCESS:   27711448  dHIT:   25596293  dMISS:    2115155  itACCESS:          0  itHIT:          0  itMISS:          0  dtACCESS:          0  dtHIT:          0  dtMISS:          0
cpu0_DTLB RFO          ACCESS:          0  HIT:          0  MISS:          0  iACCESS:          0  iHIT:          0  iMISS:          0  dACCESS:          0  dHIT:          0  dMISS:          0  itACCESS:          0  itHIT:          0  itMISS:          0  dtACCESS:          0  dtHIT:          0  dtMISS:          0
cpu0_DTLB PREFETCH     ACCESS:          0  HIT:          0  MISS:          0  iACCESS:          0  iHIT:          0  iMISS:          0  dACCESS:          0  dHIT:          0  dMISS:          0  itACCESS:          0  itHIT:          0  itMISS:          0  dtACCESS:          0  dtHIT:          0  dtMISS:          0
cpu0_DTLB WRITE        ACCESS:          0  HIT:          0  MISS:          0  iACCESS:          0  iHIT:          0  iMISS:          0  dACCESS:          0  dHIT:          0  dMISS:          0  itACCESS:          0  itHIT:          0  itMISS:          0  dtACCESS:          0  dtHIT:          0  dtMISS:          0
cpu0_DTLB TRANSLATION  ACCESS:          0  HIT:          0  MISS:          0  iACCESS:          0  iHIT:          0  iMISS:          0  dACCESS:          0  dHIT:          0  dMISS:          0  itACCESS:          0  itHIT:          0  itMISS:          0  dtACCESS:          0  dtHIT:          0  dtMISS:          0
cpu0_DTLB PREFETCH  REQUESTED:          0  ISSUED:          0  CROSSED:          0  USEFUL:          0  USELESS:          0
cpu0_DTLB AVERAGE iMISS LATENCY: 0 cycles
cpu0_DTLB AVERAGE dMISS LATENCY: 15.4087 cycles
cpu0_DTLB AVERAGE itMISS LATENCY: 0 cycles
cpu0_DTLB AVERAGE dtMISS LATENCY: 0 cycles
cpu0_DTLB PAGE CROSSINGS (TLB HIT):         0 
cpu0_DTLB PAGE CROSSINGS (TLB MISS):         0 
cpu0_DTLB AVERAGE MISS LATENCY: 15.4087 cycles
cpu0_STLB TOTAL       ACCESS:    1628195  HIT:    1493748  MISS:     134447  iACCESS:     387948  iHIT:     381907  iMISS:       6041  dACCESS:    1240247  dHIT:    1111841  dMISS:     128406  itACCESS:          0  itHIT:          0  itMISS:          0  dtACCESS:          0  dtHIT:          0  dtMISS:          0
cpu0_STLB LOAD         ACCESS:    1628195  HIT:    1493748  MISS:     134447  iACCESS:     387948  iHIT:     381907  iMISS:       6041  dACCESS:    1240247  dHIT:    1111841  dMISS:     128406  itACCESS:          0  itHIT:          0  itMISS:          0  dtACCESS:          0  dtHIT:          0  dtMISS:          0
cpu0_STLB RFO          ACCESS:          0  HIT:          0  MISS:          0  iACCESS:          0  iHIT:          0  iMISS:          0  dACCESS:          0  dHIT:          0  dMISS:          0  itACCESS:          0  itHIT:          0  itMISS:          0  dtACCESS:          0  dtHIT:          0  dtMISS:          0
cpu0_STLB PREFETCH     ACCESS:          0  HIT:          0  MISS:          0  iACCESS:          0  iHIT:          0  iMISS:          0  dACCESS:          0  dHIT:          0  dMISS:          0  itACCESS:          0  itHIT:          0  itMISS:          0  dtACCESS:          0  dtHIT:          0  dtMISS:          0
cpu0_STLB WRITE        ACCESS:          0  HIT:          0  MISS:          0  iACCESS:          0  iHIT:          0  iMISS:          0  dACCESS:          0  dHIT:          0  dMISS:          0  itACCESS:          0  itHIT:          0  itMISS:          0  dtACCESS:          0  dtHIT:          0  dtMISS:          0
cpu0_STLB TRANSLATION  ACCESS:          0  HIT:          0  MISS:          0  iACCESS:          0  iHIT:          0  iMISS:          0  dACCESS:          0  dHIT:          0  dMISS:          0  itACCESS:          0  itHIT:          0  itMISS:          0  dtACCESS:          0  dtHIT:          0  dtMISS:          0
cpu0_STLB PREFETCH  REQUESTED:          0  ISSUED:          0  CROSSED:          0  USEFUL:          0  USELESS:          0
cpu0_STLB AVERAGE iMISS LATENCY: 7.39638 cycles
cpu0_STLB AVERAGE dMISS LATENCY: 168.71 cycles
cpu0_STLB AVERAGE itMISS LATENCY: 0 cycles
cpu0_STLB AVERAGE dtMISS LATENCY: 0 cycles
cpu0_STLB PAGE CROSSINGS (TLB HIT):         0 
cpu0_STLB PAGE CROSSINGS (TLB MISS):         0 
cpu0_STLB AVERAGE MISS LATENCY: 176.106 cycles
cpu0_L1D TOTAL       ACCESS:   41524639  HIT:   37940550  MISS:    3584089  iACCESS:          0  iHIT:          0  iMISS:          0  dACCESS:   41321023  dHIT:   37928206  dMISS:    3392817  itACCESS:       7088  itHIT:        700  itMISS:       6388  dtACCESS:     196528  dtHIT:      11644  dtMISS:     184884
cpu0_L1D LOAD         ACCESS:   18951461  HIT:   17392760  MISS:    1558701  iACCESS:          0  iHIT:          0  iMISS:          0  dACCESS:   18951461  dHIT:   17392760  dMISS:    1558701  itACCESS:          0  itHIT:          0  itMISS:          0  dtACCESS:          0  dtHIT:          0  dtMISS:          0
cpu0_L1D RFO          ACCESS:          0  HIT:          0  MISS:          0  iACCESS:          0  iHIT:          0  iMISS:          0  dACCESS:          0  dHIT:          0  dMISS:          0  itACCESS:          0  itHIT:          0  itMISS:          0  dtACCESS:          0  dtHIT:          0  dtMISS:          0
cpu0_L1D PREFETCH     ACCESS:   12210672  HIT:   10825276  MISS:    1385396  iACCESS:          0  iHIT:          0  iMISS:          0  dACCESS:   12210672  dHIT:   10825276  dMISS:    1385396  itACCESS:          0  itHIT:          0  itMISS:          0  dtACCESS:          0  dtHIT:          0  dtMISS:          0
cpu0_L1D WRITE        ACCESS:   10158890  HIT:    9710170  MISS:     448720  iACCESS:          0  iHIT:          0  iMISS:          0  dACCESS:   10158890  dHIT:    9710170  dMISS:     448720  itACCESS:          0  itHIT:          0  itMISS:          0  dtACCESS:          0  dtHIT:          0  dtMISS:          0
cpu0_L1D TRANSLATION  ACCESS:     203616  HIT:      12344  MISS:     191272  iACCESS:          0  iHIT:          0  iMISS:          0  dACCESS:          0  dHIT:          0  dMISS:          0  itACCESS:       7088  itHIT:        700  itMISS:       6388  dtACCESS:     196528  dtHIT:      11644  dtMISS:     184884
cpu0_L1D PREFETCH  REQUESTED:   18951461  ISSUED:   17054444  CROSSED:          0  USEFUL:     306710  USELESS:     706722
cpu0_L1D AVERAGE iMISS LATENCY: 0 cycles
cpu0_L1D AVERAGE dMISS LATENCY: 31.8058 cycles
cpu0_L1D AVERAGE itMISS LATENCY: 0.258095 cycles
cpu0_L1D AVERAGE dtMISS LATENCY: 5.6271 cycles
cpu0_L1D PAGE CROSSINGS (TLB HIT):         0 
cpu0_L1D PAGE CROSSINGS (TLB MISS):         0 
cpu0_L1D AVERAGE MISS LATENCY: 37.691 cycles
cpu0_L2C TOTAL       ACCESS:    6991329  HIT:    4118476  MISS:    2872853  iACCESS:    3317872  iHIT:    2245488  iMISS:    1072384  dACCESS:    3496005  dHIT:    1843488  dMISS:    1652517  itACCESS:       6388  itHIT:        896  itMISS:       5492  dtACCESS:     171064  dtHIT:      28604  dtMISS:     142460
cpu0_L2C LOAD         ACCESS:    1741914  HIT:    1057410  MISS:     684504  iACCESS:     798472  iHIT:     569861  iMISS:     228611  dACCESS:     943442  dHIT:     487549  dMISS:     455893  itACCESS:          0  itHIT:          0  itMISS:          0  dtACCESS:          0  dtHIT:          0  dtMISS:          0
cpu0_L2C RFO          ACCESS:     156417  HIT:      71319  MISS:      85098  iACCESS:          0  iHIT:          0  iMISS:          0  dACCESS:     156417  dHIT:      71319  dMISS:      85098  itACCESS:          0  itHIT:          0  itMISS:          0  dtACCESS:          0  dtHIT:          0  dtMISS:          0
cpu0_L2C PREFETCH     ACCESS:    4628214  HIT:    2674570  MISS:    1953644  iACCESS:    2519400  iHIT:    1675627  iMISS:     843773  dACCESS:    2108814  dHIT:     998943  dMISS:    1109871  itACCESS:          0  itHIT:          0  itMISS:          0  dtACCESS:          0  dtHIT:          0  dtMISS:          0
cpu0_L2C WRITE        ACCESS:     287332  HIT:     285677  MISS:       1655  iACCESS:          0  iHIT:          0  iMISS:          0  dACCESS:     287332  dHIT:     285677  dMISS:       1655  itACCESS:          0  itHIT:          0  itMISS:          0  dtACCESS:          0  dtHIT:          0  dtMISS:          0
cpu0_L2C TRANSLATION  ACCESS:     177452  HIT:      29500  MISS:     147952  iACCESS:          0  iHIT:          0  iMISS:          0  dACCESS:          0  dHIT:          0  dMISS:          0  itACCESS:       6388  itHIT:        896  itMISS:       5492  dtACCESS:     171064  dtHIT:      28604  dtMISS:     142460
cpu0_L2C PREFETCH  REQUESTED:    1377197  ISSUED:    1377197  CROSSED:          0  USEFUL:     310342  USELESS:     226775
cpu0_L2C AVERAGE iMISS LATENCY: 23.6018 cycles
cpu0_L2C AVERAGE dMISS LATENCY: 45.7916 cycles
cpu0_L2C AVERAGE itMISS LATENCY: 0.300022 cycles
cpu0_L2C AVERAGE dtMISS LATENCY: 6.42999 cycles
cpu0_L2C PAGE CROSSINGS (TLB HIT):         0 
cpu0_L2C PAGE CROSSINGS (TLB MISS):         0 
cpu0_L2C AVERAGE MISS LATENCY: 76.1233 cycles
LLC TOTAL       ACCESS:    2909104  HIT:    1879280  MISS:    1029824  iACCESS:    1019945  iHIT:     698558  iMISS:     321387  dACCESS:    1741207  dHIT:    1124512  dMISS:     616695  itACCESS:       5492  itHIT:       1283  itMISS:       4209  dtACCESS:     142460  dtHIT:      54927  dtMISS:      87533
LLC LOAD         ACCESS:     682242  HIT:     454427  MISS:     227815  iACCESS:     227227  iHIT:     159148  iMISS:      68079  dACCESS:     455015  dHIT:     295279  dMISS:     159736  itACCESS:          0  itHIT:          0  itMISS:          0  dtACCESS:          0  dtHIT:          0  dtMISS:          0
LLC RFO          ACCESS:      85093  HIT:      43169  MISS:      41924  iACCESS:          0  iHIT:          0  iMISS:          0  dACCESS:      85093  dHIT:      43169  dMISS:      41924  itACCESS:          0  itHIT:          0  itMISS:          0  dtACCESS:          0  dtHIT:          0  dtMISS:          0
LLC PREFETCH     ACCESS:    1856035  HIT:    1193476  MISS:     662559  iACCESS:     792718  iHIT:     539410  iMISS:     253308  dACCESS:    1063317  dHIT:     654066  dMISS:     409251  itACCESS:          0  itHIT:          0  itMISS:          0  dtACCESS:          0  dtHIT:          0  dtMISS:          0
LLC WRITE        ACCESS:     137782  HIT:     131998  MISS:       5784  iACCESS:          0  iHIT:          0  iMISS:          0  dACCESS:     137782  dHIT:     131998  dMISS:       5784  itACCESS:          0  itHIT:          0  itMISS:          0  dtACCESS:          0  dtHIT:          0  dtMISS:          0
LLC TRANSLATION  ACCESS:     147952  HIT:      56210  MISS:      91742  iACCESS:          0  iHIT:          0  iMISS:          0  dACCESS:          0  dHIT:          0  dMISS:          0  itACCESS:       5492  itHIT:       1283  itMISS:       4209  dtACCESS:     142460  dtHIT:      54927  dtMISS:      87533
LLC PREFETCH  REQUESTED:          0  ISSUED:          0  CROSSED:          0  USEFUL:          0  USELESS:          0
LLC AVERAGE iMISS LATENCY: 46.5871 cycles
LLC AVERAGE dMISS LATENCY: 97.7805 cycles
LLC AVERAGE itMISS LATENCY: 0.731985 cycles
LLC AVERAGE dtMISS LATENCY: 15.2308 cycles
LLC PAGE CROSSINGS (TLB HIT):         0 
LLC PAGE CROSSINGS (TLB MISS):         0 
LLC AVERAGE MISS LATENCY: 160.331 cycles

PageTableWalker TOTAL       ACCESS:      67069  
PageTableWalker AVERAGE LATENCY: 5.6832 cycles
PageTableWalker TOTAL LATENCY: 381166 cycles

DRAM Statistics
Channel 0
 RQ ROW_BUFFER_HIT:     265471
  ROW_BUFFER_MISS:     757980
 AVG DBUS CONGESTED CYCLE:    3.61561
 WQ ROW_BUFFER_HIT:      21853
  ROW_BUFFER_MISS:      22910  FULL:          0

