last_page:0x200000000000000
VMEM_RES_CAP:0x100000
PAGE_SIZE:4096
LOG2_PAGE_SIZE:12
LOG2_PAGE_TABLE_SIZE:9
page_table_levels:5
WARNING: physical memory size is smaller than virtual memory size
FDiP enabled with aggresivity 16

*** ChampSim Multicore Out-of-Order Simulator ***

Warmup Instructions: 50000000
Simulation Instructions: 100000000
Number of CPUs: 1
Small page size: 4096
Large page size: 2097152

CPU 0 Bimodal branch predictor
Basic BTB sets: 1024 ways: 8 indirect buffer size: 4096 RAS size: 64
Instruction page size distrubution: 0
Loading instruction page size distribution from /home/bsc/bsc018186/scratch/itp_asplos25_AE/dump/srv358_ap.pdst
Data page size distrubution: 0
Loading data page size distribution from /home/bsc/bsc018186/scratch/itp_asplos25_AE/dump/srv358_ap.pdst
cpu0_L2C IP-based stride prefetcher
cpu0_L1D next line prefetcher
cpu0_L1I next line prefetcher
Off-chip DRAM Size: 4 GiB Channels: 1 Width: 64-bit Data Rate: 3200 MT/s
Heartbeat CPU 0 instructions: 10000001 cycles: 2500227 heartbeat IPC: 3.99964 cumulative IPC: 3.99964 (Simulation time: 0 hr 0 min 35 sec) 
Heartbeat CPU 0 instructions: 20000003 cycles: 5000262 heartbeat IPC: 3.99995 cumulative IPC: 3.9998 (Simulation time: 0 hr 1 min 12 sec) 
Heartbeat CPU 0 instructions: 30000003 cycles: 7500284 heartbeat IPC: 3.99997 cumulative IPC: 3.99985 (Simulation time: 0 hr 1 min 50 sec) 
Heartbeat CPU 0 instructions: 40000001 cycles: 10000438 heartbeat IPC: 3.99976 cumulative IPC: 3.99983 (Simulation time: 0 hr 2 min 27 sec) 
Heartbeat CPU 0 instructions: 50000002 cycles: 12500453 heartbeat IPC: 3.99998 cumulative IPC: 3.99986 (Simulation time: 0 hr 3 min 5 sec) 
Warmup finished CPU 0 instructions: 50000002 cycles: 12500454 cumulative IPC: 3.99986 (Simulation time: 0 hr 3 min 5 sec) 

Warmup complete CPU 0 instructions: 50000002 cycles: 12500454 (Simulation time: 0 hr 3 min 5 sec) 

Heartbeat CPU 0 instructions: 60000003 cycles: 26785574 heartbeat IPC: 0.70003 cumulative IPC: 0.70003 (Simulation time: 0 hr 4 min 5 sec) 
Heartbeat CPU 0 instructions: 70000000 cycles: 40328108 heartbeat IPC: 0.738415 cumulative IPC: 0.71871 (Simulation time: 0 hr 5 min 4 sec) 
Heartbeat CPU 0 instructions: 80000000 cycles: 54504672 heartbeat IPC: 0.70539 cumulative IPC: 0.714214 (Simulation time: 0 hr 6 min 4 sec) 
Heartbeat CPU 0 instructions: 90000000 cycles: 67833427 heartbeat IPC: 0.750258 cumulative IPC: 0.722897 (Simulation time: 0 hr 7 min 3 sec) 
Heartbeat CPU 0 instructions: 100000000 cycles: 82745066 heartbeat IPC: 0.670618 cumulative IPC: 0.711799 (Simulation time: 0 hr 8 min 4 sec) 
*** Reached end of trace: /gpfs/projects/bsc18/MN4/bsc18/romol/ChampSim/traces/qualcomm_srv/srv358_ap.champsimtrace.xz
Heartbeat CPU 0 instructions: 110000004 cycles: 97326411 heartbeat IPC: 0.685809 cumulative IPC: 0.707331 (Simulation time: 0 hr 9 min 5 sec) 
Heartbeat CPU 0 instructions: 120000002 cycles: 111437361 heartbeat IPC: 0.70867 cumulative IPC: 0.707522 (Simulation time: 0 hr 10 min 4 sec) 
Heartbeat CPU 0 instructions: 130000001 cycles: 125250208 heartbeat IPC: 0.723964 cumulative IPC: 0.709536 (Simulation time: 0 hr 11 min 4 sec) 
Heartbeat CPU 0 instructions: 140000003 cycles: 139804245 heartbeat IPC: 0.687095 cumulative IPC: 0.706971 (Simulation time: 0 hr 12 min 5 sec) 
Heartbeat CPU 0 instructions: 150000002 cycles: 154145773 heartbeat IPC: 0.697276 cumulative IPC: 0.705989 (Simulation time: 0 hr 13 min 5 sec) 
Simulation finished CPU 0 instructions: 100000000 cycles: 141645320 cumulative IPC: 0.705989 (Simulation time: 0 hr 13 min 5 sec) 

Simulation complete CPU 0 instructions: 100000000 cycles: 141645320 (Simulation time: 0 hr 13 min 5 sec) 


ChampSim completed all CPUs

Saving instructions large page distribution to /home/bsc/bsc018186/scratch/itp_asplos25_AE/dump/srv358_ap.pdst...
Saving data large page distribution to /home/bsc/bsc018186/scratch/itp_asplos25_AE/dump/srv358_ap.pdst...
=== Simulation ===
CPU 0 runs /gpfs/projects/bsc18/MN4/bsc18/romol/ChampSim/traces/qualcomm_srv/srv358_ap.champsimtrace.xz

Region of Interest Statistics

CPU 0 cumulative IPC: 0.705989 instructions: 100000000 cycles: 141645320
CPU 0 Branch Prediction Accuracy: 82.9127% MPKI: 30.5285 Average ROB Occupancy at Mispredict: 12.3447
Branch type MPKI
BRANCH_DIRECT_JUMP: 1.03441
BRANCH_INDIRECT: 15.5752
BRANCH_CONDITIONAL: 10.1891
BRANCH_DIRECT_CALL: 1.8736
BRANCH_INDIRECT_CALL: 0.516041
BRANCH_RETURN: 1.34028

Instructions large pages: 0
Instructions small pages: 1010
Large page distribution for instructions: 0%

Data large pages: 0
Data small pages: 9666
Large page distribution for data: 0%

cpu0_L1I TOTAL       ACCESS:   35455560  HIT:   27051941  MISS:    8403619  iACCESS:   35455560  iHIT:   27051941  iMISS:    8403619  dACCESS:          0  dHIT:          0  dMISS:          0  itACCESS:          0  itHIT:          0  itMISS:          0  dtACCESS:          0  dtHIT:          0  dtMISS:          0
cpu0_L1I LOAD         ACCESS:   10389001  HIT:    8038597  MISS:    2350404  iACCESS:   10389001  iHIT:    8038597  iMISS:    2350404  dACCESS:          0  dHIT:          0  dMISS:          0  itACCESS:          0  itHIT:          0  itMISS:          0  dtACCESS:          0  dtHIT:          0  dtMISS:          0
cpu0_L1I RFO          ACCESS:          0  HIT:          0  MISS:          0  iACCESS:          0  iHIT:          0  iMISS:          0  dACCESS:          0  dHIT:          0  dMISS:          0  itACCESS:          0  itHIT:          0  itMISS:          0  dtACCESS:          0  dtHIT:          0  dtMISS:          0
cpu0_L1I PREFETCH     ACCESS:   25066559  HIT:   19013344  MISS:    6053215  iACCESS:   25066559  iHIT:   19013344  iMISS:    6053215  dACCESS:          0  dHIT:          0  dMISS:          0  itACCESS:          0  itHIT:          0  itMISS:          0  dtACCESS:          0  dtHIT:          0  dtMISS:          0
cpu0_L1I WRITE        ACCESS:          0  HIT:          0  MISS:          0  iACCESS:          0  iHIT:          0  iMISS:          0  dACCESS:          0  dHIT:          0  dMISS:          0  itACCESS:          0  itHIT:          0  itMISS:          0  dtACCESS:          0  dtHIT:          0  dtMISS:          0
cpu0_L1I TRANSLATION  ACCESS:          0  HIT:          0  MISS:          0  iACCESS:          0  iHIT:          0  iMISS:          0  dACCESS:          0  dHIT:          0  dMISS:          0  itACCESS:          0  itHIT:          0  itMISS:          0  dtACCESS:          0  dtHIT:          0  dtMISS:          0
cpu0_L1I PREFETCH  REQUESTED:   27376076  ISSUED:   27374519  CROSSED:          0  USEFUL:    1940547  USELESS:     624782
cpu0_L1I AVERAGE iMISS LATENCY: 13.1481 cycles
cpu0_L1I AVERAGE dMISS LATENCY: 0 cycles
cpu0_L1I AVERAGE itMISS LATENCY: 0 cycles
cpu0_L1I AVERAGE dtMISS LATENCY: 0 cycles
cpu0_L1I PAGE CROSSINGS (TLB HIT):         0 
cpu0_L1I PAGE CROSSINGS (TLB MISS):         0 
cpu0_L1I AVERAGE MISS LATENCY: 13.1481 cycles
cpu0_ITLB TOTAL       ACCESS:   29331672  HIT:   27407366  MISS:    1924306  iACCESS:   29331672  iHIT:   27407366  iMISS:    1924306  dACCESS:          0  dHIT:          0  dMISS:          0  itACCESS:          0  itHIT:          0  itMISS:          0  dtACCESS:          0  dtHIT:          0  dtMISS:          0
cpu0_ITLB LOAD         ACCESS:   29331672  HIT:   27407366  MISS:    1924306  iACCESS:   29331672  iHIT:   27407366  iMISS:    1924306  dACCESS:          0  dHIT:          0  dMISS:          0  itACCESS:          0  itHIT:          0  itMISS:          0  dtACCESS:          0  dtHIT:          0  dtMISS:          0
cpu0_ITLB RFO          ACCESS:          0  HIT:          0  MISS:          0  iACCESS:          0  iHIT:          0  iMISS:          0  dACCESS:          0  dHIT:          0  dMISS:          0  itACCESS:          0  itHIT:          0  itMISS:          0  dtACCESS:          0  dtHIT:          0  dtMISS:          0
cpu0_ITLB PREFETCH     ACCESS:          0  HIT:          0  MISS:          0  iACCESS:          0  iHIT:          0  iMISS:          0  dACCESS:          0  dHIT:          0  dMISS:          0  itACCESS:          0  itHIT:          0  itMISS:          0  dtACCESS:          0  dtHIT:          0  dtMISS:          0
cpu0_ITLB WRITE        ACCESS:          0  HIT:          0  MISS:          0  iACCESS:          0  iHIT:          0  iMISS:          0  dACCESS:          0  dHIT:          0  dMISS:          0  itACCESS:          0  itHIT:          0  itMISS:          0  dtACCESS:          0  dtHIT:          0  dtMISS:          0
cpu0_ITLB TRANSLATION  ACCESS:          0  HIT:          0  MISS:          0  iACCESS:          0  iHIT:          0  iMISS:          0  dACCESS:          0  dHIT:          0  dMISS:          0  itACCESS:          0  itHIT:          0  itMISS:          0  dtACCESS:          0  dtHIT:          0  dtMISS:          0
cpu0_ITLB PREFETCH  REQUESTED:          0  ISSUED:          0  CROSSED:          0  USEFUL:     316226  USELESS:      63746
cpu0_ITLB AVERAGE iMISS LATENCY: 3.22433 cycles
cpu0_ITLB AVERAGE dMISS LATENCY: 0 cycles
cpu0_ITLB AVERAGE itMISS LATENCY: 0 cycles
cpu0_ITLB AVERAGE dtMISS LATENCY: 0 cycles
cpu0_ITLB PAGE CROSSINGS (TLB HIT):         0 
cpu0_ITLB PAGE CROSSINGS (TLB MISS):         0 
cpu0_ITLB AVERAGE MISS LATENCY: 3.22433 cycles
cpu0_DTLB TOTAL       ACCESS:   27743874  HIT:   25664480  MISS:    2079394  iACCESS:          0  iHIT:          0  iMISS:          0  dACCESS:   27743874  dHIT:   25664480  dMISS:    2079394  itACCESS:          0  itHIT:          0  itMISS:          0  dtACCESS:          0  dtHIT:          0  dtMISS:          0
cpu0_DTLB LOAD         ACCESS:   27743874  HIT:   25664480  MISS:    2079394  iACCESS:          0  iHIT:          0  iMISS:          0  dACCESS:   27743874  dHIT:   25664480  dMISS:    2079394  itACCESS:          0  itHIT:          0  itMISS:          0  dtACCESS:          0  dtHIT:          0  dtMISS:          0
cpu0_DTLB RFO          ACCESS:          0  HIT:          0  MISS:          0  iACCESS:          0  iHIT:          0  iMISS:          0  dACCESS:          0  dHIT:          0  dMISS:          0  itACCESS:          0  itHIT:          0  itMISS:          0  dtACCESS:          0  dtHIT:          0  dtMISS:          0
cpu0_DTLB PREFETCH     ACCESS:          0  HIT:          0  MISS:          0  iACCESS:          0  iHIT:          0  iMISS:          0  dACCESS:          0  dHIT:          0  dMISS:          0  itACCESS:          0  itHIT:          0  itMISS:          0  dtACCESS:          0  dtHIT:          0  dtMISS:          0
cpu0_DTLB WRITE        ACCESS:          0  HIT:          0  MISS:          0  iACCESS:          0  iHIT:          0  iMISS:          0  dACCESS:          0  dHIT:          0  dMISS:          0  itACCESS:          0  itHIT:          0  itMISS:          0  dtACCESS:          0  dtHIT:          0  dtMISS:          0
cpu0_DTLB TRANSLATION  ACCESS:          0  HIT:          0  MISS:          0  iACCESS:          0  iHIT:          0  iMISS:          0  dACCESS:          0  dHIT:          0  dMISS:          0  itACCESS:          0  itHIT:          0  itMISS:          0  dtACCESS:          0  dtHIT:          0  dtMISS:          0
cpu0_DTLB PREFETCH  REQUESTED:          0  ISSUED:          0  CROSSED:          0  USEFUL:          0  USELESS:          0
cpu0_DTLB AVERAGE iMISS LATENCY: 0 cycles
cpu0_DTLB AVERAGE dMISS LATENCY: 10.2293 cycles
cpu0_DTLB AVERAGE itMISS LATENCY: 0 cycles
cpu0_DTLB AVERAGE dtMISS LATENCY: 0 cycles
cpu0_DTLB PAGE CROSSINGS (TLB HIT):         0 
cpu0_DTLB PAGE CROSSINGS (TLB MISS):         0 
cpu0_DTLB AVERAGE MISS LATENCY: 10.2293 cycles
cpu0_STLB TOTAL       ACCESS:    1616975  HIT:    1449586  MISS:     167389  iACCESS:     379981  iHIT:     321711  iMISS:      58270  dACCESS:    1236994  dHIT:    1127875  dMISS:     109119  itACCESS:          0  itHIT:          0  itMISS:          0  dtACCESS:          0  dtHIT:          0  dtMISS:          0
cpu0_STLB LOAD         ACCESS:    1616975  HIT:    1449586  MISS:     167389  iACCESS:     379981  iHIT:     321711  iMISS:      58270  dACCESS:    1236994  dHIT:    1127875  dMISS:     109119  itACCESS:          0  itHIT:          0  itMISS:          0  dtACCESS:          0  dtHIT:          0  dtMISS:          0
cpu0_STLB RFO          ACCESS:          0  HIT:          0  MISS:          0  iACCESS:          0  iHIT:          0  iMISS:          0  dACCESS:          0  dHIT:          0  dMISS:          0  itACCESS:          0  itHIT:          0  itMISS:          0  dtACCESS:          0  dtHIT:          0  dtMISS:          0
cpu0_STLB PREFETCH     ACCESS:          0  HIT:          0  MISS:          0  iACCESS:          0  iHIT:          0  iMISS:          0  dACCESS:          0  dHIT:          0  dMISS:          0  itACCESS:          0  itHIT:          0  itMISS:          0  dtACCESS:          0  dtHIT:          0  dtMISS:          0
cpu0_STLB WRITE        ACCESS:          0  HIT:          0  MISS:          0  iACCESS:          0  iHIT:          0  iMISS:          0  dACCESS:          0  dHIT:          0  dMISS:          0  itACCESS:          0  itHIT:          0  itMISS:          0  dtACCESS:          0  dtHIT:          0  dtMISS:          0
cpu0_STLB TRANSLATION  ACCESS:          0  HIT:          0  MISS:          0  iACCESS:          0  iHIT:          0  iMISS:          0  dACCESS:          0  dHIT:          0  dMISS:          0  itACCESS:          0  itHIT:          0  itMISS:          0  dtACCESS:          0  dtHIT:          0  dtMISS:          0
cpu0_STLB PREFETCH  REQUESTED:          0  ISSUED:          0  CROSSED:          0  USEFUL:          0  USELESS:          0
cpu0_STLB AVERAGE iMISS LATENCY: 19.146 cycles
cpu0_STLB AVERAGE dMISS LATENCY: 68.2172 cycles
cpu0_STLB AVERAGE itMISS LATENCY: 0 cycles
cpu0_STLB AVERAGE dtMISS LATENCY: 0 cycles
cpu0_STLB PAGE CROSSINGS (TLB HIT):         0 
cpu0_STLB PAGE CROSSINGS (TLB MISS):         0 
cpu0_STLB AVERAGE MISS LATENCY: 87.3632 cycles
cpu0_L1D TOTAL       ACCESS:   41537464  HIT:   38072194  MISS:    3465270  iACCESS:          0  iHIT:          0  iMISS:          0  dACCESS:   41310121  dHIT:   38052484  dMISS:    3257637  itACCESS:      63279  itHIT:       9088  itMISS:      54191  dtACCESS:     164064  dtHIT:      10622  dtMISS:     153442
cpu0_L1D LOAD         ACCESS:   18949027  HIT:   17466630  MISS:    1482397  iACCESS:          0  iHIT:          0  iMISS:          0  dACCESS:   18949027  dHIT:   17466630  dMISS:    1482397  itACCESS:          0  itHIT:          0  itMISS:          0  dtACCESS:          0  dtHIT:          0  dtMISS:          0
cpu0_L1D RFO          ACCESS:          0  HIT:          0  MISS:          0  iACCESS:          0  iHIT:          0  iMISS:          0  dACCESS:          0  dHIT:          0  dMISS:          0  itACCESS:          0  itHIT:          0  itMISS:          0  dtACCESS:          0  dtHIT:          0  dtMISS:          0
cpu0_L1D PREFETCH     ACCESS:   12204318  HIT:   10851620  MISS:    1352698  iACCESS:          0  iHIT:          0  iMISS:          0  dACCESS:   12204318  dHIT:   10851620  dMISS:    1352698  itACCESS:          0  itHIT:          0  itMISS:          0  dtACCESS:          0  dtHIT:          0  dtMISS:          0
cpu0_L1D WRITE        ACCESS:   10156776  HIT:    9734234  MISS:     422542  iACCESS:          0  iHIT:          0  iMISS:          0  dACCESS:   10156776  dHIT:    9734234  dMISS:     422542  itACCESS:          0  itHIT:          0  itMISS:          0  dtACCESS:          0  dtHIT:          0  dtMISS:          0
cpu0_L1D TRANSLATION  ACCESS:     227343  HIT:      19710  MISS:     207633  iACCESS:          0  iHIT:          0  iMISS:          0  dACCESS:          0  dHIT:          0  dMISS:          0  itACCESS:      63279  itHIT:       9088  itMISS:      54191  dtACCESS:     164064  dtHIT:      10622  dtMISS:     153442
cpu0_L1D PREFETCH  REQUESTED:   18949027  ISSUED:   17055374  CROSSED:          0  USEFUL:     307338  USELESS:     701699
cpu0_L1D AVERAGE iMISS LATENCY: 0 cycles
cpu0_L1D AVERAGE dMISS LATENCY: 33.4626 cycles
cpu0_L1D AVERAGE itMISS LATENCY: 0.780965 cycles
cpu0_L1D AVERAGE dtMISS LATENCY: 2.63251 cycles
cpu0_L1D PAGE CROSSINGS (TLB HIT):         0 
cpu0_L1D PAGE CROSSINGS (TLB MISS):         0 
cpu0_L1D AVERAGE MISS LATENCY: 36.876 cycles
cpu0_L2C TOTAL       ACCESS:    6998339  HIT:    1655170  MISS:    5343169  iACCESS:    3300334  iHIT:     851009  iMISS:    2449325  dACCESS:    3499584  dHIT:     691141  dMISS:    2808443  itACCESS:      54191  itHIT:      37435  itMISS:      16756  dtACCESS:     144230  dtHIT:      75585  dtMISS:      68645
cpu0_L2C LOAD         ACCESS:    1701928  HIT:     275504  MISS:    1426424  iACCESS:     772850  iHIT:     133582  iMISS:     639268  dACCESS:     929078  dHIT:     141922  dMISS:     787156  itACCESS:          0  itHIT:          0  itMISS:          0  dtACCESS:          0  dtHIT:          0  dtMISS:          0
cpu0_L2C RFO          ACCESS:     158835  HIT:      49866  MISS:     108969  iACCESS:          0  iHIT:          0  iMISS:          0  dACCESS:     158835  dHIT:      49866  dMISS:     108969  itACCESS:          0  itHIT:          0  itMISS:          0  dtACCESS:          0  dtHIT:          0  dtMISS:          0
cpu0_L2C PREFETCH     ACCESS:    4659528  HIT:    1085624  MISS:    3573904  iACCESS:    2527484  iHIT:     717427  iMISS:    1810057  dACCESS:    2132044  dHIT:     368197  dMISS:    1763847  itACCESS:          0  itHIT:          0  itMISS:          0  dtACCESS:          0  dtHIT:          0  dtMISS:          0
cpu0_L2C WRITE        ACCESS:     279627  HIT:     131156  MISS:     148471  iACCESS:          0  iHIT:          0  iMISS:          0  dACCESS:     279627  dHIT:     131156  dMISS:     148471  itACCESS:          0  itHIT:          0  itMISS:          0  dtACCESS:          0  dtHIT:          0  dtMISS:          0
cpu0_L2C TRANSLATION  ACCESS:     198421  HIT:     113020  MISS:      85401  iACCESS:          0  iHIT:          0  iMISS:          0  dACCESS:          0  dHIT:          0  dMISS:          0  itACCESS:      54191  itHIT:      37435  itMISS:      16756  dtACCESS:     144230  dtHIT:      75585  dtMISS:      68645
cpu0_L2C PREFETCH  REQUESTED:    1385613  ISSUED:    1385613  CROSSED:          0  USEFUL:     416236  USELESS:     373010
cpu0_L2C AVERAGE iMISS LATENCY: 14.9255 cycles
cpu0_L2C AVERAGE dMISS LATENCY: 25.082 cycles
cpu0_L2C AVERAGE itMISS LATENCY: 0.411849 cycles
cpu0_L2C AVERAGE dtMISS LATENCY: 1.44989 cycles
cpu0_L2C PAGE CROSSINGS (TLB HIT):         0 
cpu0_L2C PAGE CROSSINGS (TLB MISS):         0 
cpu0_L2C AVERAGE MISS LATENCY: 41.8692 cycles
LLC TOTAL       ACCESS:    5228943  HIT:    4423108  MISS:     805835  iACCESS:    2396105  iHIT:    2165487  iMISS:     230618  dACCESS:    2747437  dHIT:    2218822  dMISS:     528615  itACCESS:      16756  itHIT:       5843  itMISS:      10913  dtACCESS:      68645  dtHIT:      32956  dtMISS:      35689
LLC LOAD         ACCESS:    1424720  HIT:    1248377  MISS:     176343  iACCESS:     638044  iHIT:     589177  iMISS:      48867  dACCESS:     786676  dHIT:     659200  dMISS:     127476  itACCESS:          0  itHIT:          0  itMISS:          0  dtACCESS:          0  dtHIT:          0  dtMISS:          0
LLC RFO          ACCESS:     108955  HIT:      74058  MISS:      34897  iACCESS:          0  iHIT:          0  iMISS:          0  dACCESS:     108955  dHIT:      74058  dMISS:      34897  itACCESS:          0  itHIT:          0  itMISS:          0  dtACCESS:          0  dtHIT:          0  dtMISS:          0
LLC PREFETCH     ACCESS:    3467093  HIT:    2927706  MISS:     539387  iACCESS:    1758061  iHIT:    1576310  iMISS:     181751  dACCESS:    1709032  dHIT:    1351396  dMISS:     357636  itACCESS:          0  itHIT:          0  itMISS:          0  dtACCESS:          0  dtHIT:          0  dtMISS:          0
LLC WRITE        ACCESS:     142774  HIT:     134168  MISS:       8606  iACCESS:          0  iHIT:          0  iMISS:          0  dACCESS:     142774  dHIT:     134168  dMISS:       8606  itACCESS:          0  itHIT:          0  itMISS:          0  dtACCESS:          0  dtHIT:          0  dtMISS:          0
LLC TRANSLATION  ACCESS:      85401  HIT:      38799  MISS:      46602  iACCESS:          0  iHIT:          0  iMISS:          0  dACCESS:          0  dHIT:          0  dMISS:          0  itACCESS:      16756  itHIT:       5843  itMISS:      10913  dtACCESS:      68645  dtHIT:      32956  dtMISS:      35689
LLC PREFETCH  REQUESTED:          0  ISSUED:          0  CROSSED:          0  USEFUL:          0  USELESS:          0
LLC AVERAGE iMISS LATENCY: 41.6206 cycles
LLC AVERAGE dMISS LATENCY: 103.865 cycles
LLC AVERAGE itMISS LATENCY: 2.32304 cycles
LLC AVERAGE dtMISS LATENCY: 7.9521 cycles
LLC PAGE CROSSINGS (TLB HIT):         0 
LLC PAGE CROSSINGS (TLB MISS):         0 
LLC AVERAGE MISS LATENCY: 155.761 cycles

PageTableWalker TOTAL       ACCESS:      87042  
PageTableWalker AVERAGE LATENCY: 4.56165 cycles
PageTableWalker TOTAL LATENCY: 397055 cycles

DRAM Statistics
Channel 0
 RQ ROW_BUFFER_HIT:     224158
  ROW_BUFFER_MISS:     573003
 AVG DBUS CONGESTED CYCLE:    3.62906
 WQ ROW_BUFFER_HIT:      15499
  ROW_BUFFER_MISS:      21772  FULL:          0

