last_page:0x200000000000000
VMEM_RES_CAP:0x100000
PAGE_SIZE:4096
LOG2_PAGE_SIZE:12
LOG2_PAGE_TABLE_SIZE:9
page_table_levels:5
WARNING: physical memory size is smaller than virtual memory size
FDiP enabled with aggresivity 16

*** ChampSim Multicore Out-of-Order Simulator ***

Warmup Instructions: 50000000
Simulation Instructions: 100000000
Number of CPUs: 1
Small page size: 4096
Large page size: 2097152

CPU 0 Bimodal branch predictor
Basic BTB sets: 1024 ways: 8 indirect buffer size: 4096 RAS size: 64
Instruction page size distrubution: 0
Loading instruction page size distribution from /home/bsc/bsc018186/scratch/itp_asplos25_AE/dump/srv359_ap.pdst
Data page size distrubution: 0
Loading data page size distribution from /home/bsc/bsc018186/scratch/itp_asplos25_AE/dump/srv359_ap.pdst
cpu0_L2C IP-based stride prefetcher
cpu0_L2C is using PTP replacement policy:
	TLB_STRESS_THRESHOLD:0
	PTE_EVICTION_RATIO:0
cpu0_L1D next line prefetcher
CHiRPing...
cpu0_L1I next line prefetcher
Off-chip DRAM Size: 4 GiB Channels: 1 Width: 64-bit Data Rate: 3200 MT/s
Heartbeat CPU 0 instructions: 10000000 cycles: 2500182 heartbeat IPC: 3.99971 cumulative IPC: 3.99971 (Simulation time: 0 hr 0 min 37 sec) 
Heartbeat CPU 0 instructions: 20000001 cycles: 5000392 heartbeat IPC: 3.99967 cumulative IPC: 3.99969 (Simulation time: 0 hr 1 min 17 sec) 
Heartbeat CPU 0 instructions: 30000001 cycles: 7500426 heartbeat IPC: 3.99995 cumulative IPC: 3.99978 (Simulation time: 0 hr 1 min 57 sec) 
Heartbeat CPU 0 instructions: 40000001 cycles: 10000738 heartbeat IPC: 3.99951 cumulative IPC: 3.99971 (Simulation time: 0 hr 2 min 38 sec) 
Heartbeat CPU 0 instructions: 50000001 cycles: 12857791 heartbeat IPC: 3.50012 cumulative IPC: 3.8887 (Simulation time: 0 hr 3 min 19 sec) 
Warmup finished CPU 0 instructions: 50000001 cycles: 12857792 cumulative IPC: 3.8887 (Simulation time: 0 hr 3 min 19 sec) 

Warmup complete CPU 0 instructions: 50000001 cycles: 12857792 (Simulation time: 0 hr 3 min 19 sec) 

Heartbeat CPU 0 instructions: 60000001 cycles: 24309082 heartbeat IPC: 0.873264 cumulative IPC: 0.873265 (Simulation time: 0 hr 4 min 21 sec) 
Heartbeat CPU 0 instructions: 70000002 cycles: 38530278 heartbeat IPC: 0.703176 cumulative IPC: 0.779045 (Simulation time: 0 hr 5 min 24 sec) 
Heartbeat CPU 0 instructions: 80000000 cycles: 52438995 heartbeat IPC: 0.718974 cumulative IPC: 0.757936 (Simulation time: 0 hr 6 min 27 sec) 
Heartbeat CPU 0 instructions: 90000000 cycles: 67367876 heartbeat IPC: 0.669843 cumulative IPC: 0.73381 (Simulation time: 0 hr 7 min 33 sec) 
Heartbeat CPU 0 instructions: 100000004 cycles: 82307326 heartbeat IPC: 0.669369 cumulative IPC: 0.719948 (Simulation time: 0 hr 8 min 40 sec) 
*** Reached end of trace: /gpfs/projects/bsc18/MN4/bsc18/romol/ChampSim/traces/qualcomm_srv/srv359_ap.champsimtrace.xz
Heartbeat CPU 0 instructions: 110000003 cycles: 95428325 heartbeat IPC: 0.762138 cumulative IPC: 0.726652 (Simulation time: 0 hr 9 min 44 sec) 
Heartbeat CPU 0 instructions: 120000000 cycles: 109352095 heartbeat IPC: 0.718197 cumulative IPC: 0.725432 (Simulation time: 0 hr 10 min 49 sec) 
Heartbeat CPU 0 instructions: 130000000 cycles: 122914611 heartbeat IPC: 0.737327 cumulative IPC: 0.726898 (Simulation time: 0 hr 11 min 53 sec) 
Heartbeat CPU 0 instructions: 140000002 cycles: 137409363 heartbeat IPC: 0.689906 cumulative IPC: 0.722593 (Simulation time: 0 hr 12 min 59 sec) 
Heartbeat CPU 0 instructions: 150000001 cycles: 149334983 heartbeat IPC: 0.838531 cumulative IPC: 0.732724 (Simulation time: 0 hr 14 min 4 sec) 
Simulation finished CPU 0 instructions: 100000000 cycles: 136477192 cumulative IPC: 0.732724 (Simulation time: 0 hr 14 min 4 sec) 

Simulation complete CPU 0 instructions: 100000000 cycles: 136477192 (Simulation time: 0 hr 14 min 4 sec) 


ChampSim completed all CPUs

Saving instructions large page distribution to /home/bsc/bsc018186/scratch/itp_asplos25_AE/dump/srv359_ap.pdst...
Saving data large page distribution to /home/bsc/bsc018186/scratch/itp_asplos25_AE/dump/srv359_ap.pdst...
=== Simulation ===
CPU 0 runs /gpfs/projects/bsc18/MN4/bsc18/romol/ChampSim/traces/qualcomm_srv/srv359_ap.champsimtrace.xz

Region of Interest Statistics

CPU 0 cumulative IPC: 0.732724 instructions: 100000000 cycles: 136477192
CPU 0 Branch Prediction Accuracy: 85.221% MPKI: 27.8546 Average ROB Occupancy at Mispredict: 13.8212
Branch type MPKI
BRANCH_DIRECT_JUMP: 0.928171
BRANCH_INDIRECT: 14.5363
BRANCH_CONDITIONAL: 8.98471
BRANCH_DIRECT_CALL: 1.67339
BRANCH_INDIRECT_CALL: 0.517231
BRANCH_RETURN: 1.2148

Instructions large pages: 0
Instructions small pages: 1096
Large page distribution for instructions: 0%

Data large pages: 0
Data small pages: 9809
Large page distribution for data: 0%

cpu0_L1I TOTAL       ACCESS:   34643284  HIT:   26934934  MISS:    7708350  iACCESS:   34643284  iHIT:   26934934  iMISS:    7708350  dACCESS:          0  dHIT:          0  dMISS:          0  itACCESS:          0  itHIT:          0  itMISS:          0  dtACCESS:          0  dtHIT:          0  dtMISS:          0
cpu0_L1I LOAD         ACCESS:    9580695  HIT:    7417407  MISS:    2163288  iACCESS:    9580695  iHIT:    7417407  iMISS:    2163288  dACCESS:          0  dHIT:          0  dMISS:          0  itACCESS:          0  itHIT:          0  itMISS:          0  dtACCESS:          0  dtHIT:          0  dtMISS:          0
cpu0_L1I RFO          ACCESS:          0  HIT:          0  MISS:          0  iACCESS:          0  iHIT:          0  iMISS:          0  dACCESS:          0  dHIT:          0  dMISS:          0  itACCESS:          0  itHIT:          0  itMISS:          0  dtACCESS:          0  dtHIT:          0  dtMISS:          0
cpu0_L1I PREFETCH     ACCESS:   25062589  HIT:   19517527  MISS:    5545062  iACCESS:   25062589  iHIT:   19517527  iMISS:    5545062  dACCESS:          0  dHIT:          0  dMISS:          0  itACCESS:          0  itHIT:          0  itMISS:          0  dtACCESS:          0  dtHIT:          0  dtMISS:          0
cpu0_L1I WRITE        ACCESS:          0  HIT:          0  MISS:          0  iACCESS:          0  iHIT:          0  iMISS:          0  dACCESS:          0  dHIT:          0  dMISS:          0  itACCESS:          0  itHIT:          0  itMISS:          0  dtACCESS:          0  dtHIT:          0  dtMISS:          0
cpu0_L1I TRANSLATION  ACCESS:          0  HIT:          0  MISS:          0  iACCESS:          0  iHIT:          0  iMISS:          0  dACCESS:          0  dHIT:          0  dMISS:          0  itACCESS:          0  itHIT:          0  itMISS:          0  dtACCESS:          0  dtHIT:          0  dtMISS:          0
cpu0_L1I PREFETCH  REQUESTED:   27202046  ISSUED:   27199767  CROSSED:          0  USEFUL:    1734066  USELESS:     573229
cpu0_L1I AVERAGE iMISS LATENCY: 14.3379 cycles
cpu0_L1I AVERAGE dMISS LATENCY: 0 cycles
cpu0_L1I AVERAGE itMISS LATENCY: 0 cycles
cpu0_L1I AVERAGE dtMISS LATENCY: 0 cycles
cpu0_L1I PAGE CROSSINGS (TLB HIT):         0 
cpu0_L1I PAGE CROSSINGS (TLB MISS):         0 
cpu0_L1I AVERAGE MISS LATENCY: 14.3379 cycles
cpu0_ITLB TOTAL       ACCESS:   28681843  HIT:   26882719  MISS:    1799124  iACCESS:   28681843  iHIT:   26882719  iMISS:    1799124  dACCESS:          0  dHIT:          0  dMISS:          0  itACCESS:          0  itHIT:          0  itMISS:          0  dtACCESS:          0  dtHIT:          0  dtMISS:          0
cpu0_ITLB LOAD         ACCESS:   28681843  HIT:   26882719  MISS:    1799124  iACCESS:   28681843  iHIT:   26882719  iMISS:    1799124  dACCESS:          0  dHIT:          0  dMISS:          0  itACCESS:          0  itHIT:          0  itMISS:          0  dtACCESS:          0  dtHIT:          0  dtMISS:          0
cpu0_ITLB RFO          ACCESS:          0  HIT:          0  MISS:          0  iACCESS:          0  iHIT:          0  iMISS:          0  dACCESS:          0  dHIT:          0  dMISS:          0  itACCESS:          0  itHIT:          0  itMISS:          0  dtACCESS:          0  dtHIT:          0  dtMISS:          0
cpu0_ITLB PREFETCH     ACCESS:          0  HIT:          0  MISS:          0  iACCESS:          0  iHIT:          0  iMISS:          0  dACCESS:          0  dHIT:          0  dMISS:          0  itACCESS:          0  itHIT:          0  itMISS:          0  dtACCESS:          0  dtHIT:          0  dtMISS:          0
cpu0_ITLB WRITE        ACCESS:          0  HIT:          0  MISS:          0  iACCESS:          0  iHIT:          0  iMISS:          0  dACCESS:          0  dHIT:          0  dMISS:          0  itACCESS:          0  itHIT:          0  itMISS:          0  dtACCESS:          0  dtHIT:          0  dtMISS:          0
cpu0_ITLB TRANSLATION  ACCESS:          0  HIT:          0  MISS:          0  iACCESS:          0  iHIT:          0  iMISS:          0  dACCESS:          0  dHIT:          0  dMISS:          0  itACCESS:          0  itHIT:          0  itMISS:          0  dtACCESS:          0  dtHIT:          0  dtMISS:          0
cpu0_ITLB PREFETCH  REQUESTED:          0  ISSUED:          0  CROSSED:          0  USEFUL:     293948  USELESS:      60753
cpu0_ITLB AVERAGE iMISS LATENCY: 2.8636 cycles
cpu0_ITLB AVERAGE dMISS LATENCY: 0 cycles
cpu0_ITLB AVERAGE itMISS LATENCY: 0 cycles
cpu0_ITLB AVERAGE dtMISS LATENCY: 0 cycles
cpu0_ITLB PAGE CROSSINGS (TLB HIT):         0 
cpu0_ITLB PAGE CROSSINGS (TLB MISS):         0 
cpu0_ITLB AVERAGE MISS LATENCY: 2.8636 cycles
cpu0_DTLB TOTAL       ACCESS:   29034014  HIT:   25357804  MISS:    3676210  iACCESS:          0  iHIT:          0  iMISS:          0  dACCESS:   29034014  dHIT:   25357804  dMISS:    3676210  itACCESS:          0  itHIT:          0  itMISS:          0  dtACCESS:          0  dtHIT:          0  dtMISS:          0
cpu0_DTLB LOAD         ACCESS:   29034014  HIT:   25357804  MISS:    3676210  iACCESS:          0  iHIT:          0  iMISS:          0  dACCESS:   29034014  dHIT:   25357804  dMISS:    3676210  itACCESS:          0  itHIT:          0  itMISS:          0  dtACCESS:          0  dtHIT:          0  dtMISS:          0
cpu0_DTLB RFO          ACCESS:          0  HIT:          0  MISS:          0  iACCESS:          0  iHIT:          0  iMISS:          0  dACCESS:          0  dHIT:          0  dMISS:          0  itACCESS:          0  itHIT:          0  itMISS:          0  dtACCESS:          0  dtHIT:          0  dtMISS:          0
cpu0_DTLB PREFETCH     ACCESS:          0  HIT:          0  MISS:          0  iACCESS:          0  iHIT:          0  iMISS:          0  dACCESS:          0  dHIT:          0  dMISS:          0  itACCESS:          0  itHIT:          0  itMISS:          0  dtACCESS:          0  dtHIT:          0  dtMISS:          0
cpu0_DTLB WRITE        ACCESS:          0  HIT:          0  MISS:          0  iACCESS:          0  iHIT:          0  iMISS:          0  dACCESS:          0  dHIT:          0  dMISS:          0  itACCESS:          0  itHIT:          0  itMISS:          0  dtACCESS:          0  dtHIT:          0  dtMISS:          0
cpu0_DTLB TRANSLATION  ACCESS:          0  HIT:          0  MISS:          0  iACCESS:          0  iHIT:          0  iMISS:          0  dACCESS:          0  dHIT:          0  dMISS:          0  itACCESS:          0  itHIT:          0  itMISS:          0  dtACCESS:          0  dtHIT:          0  dtMISS:          0
cpu0_DTLB PREFETCH  REQUESTED:          0  ISSUED:          0  CROSSED:          0  USEFUL:          0  USELESS:          0
cpu0_DTLB AVERAGE iMISS LATENCY: 0 cycles
cpu0_DTLB AVERAGE dMISS LATENCY: 6.45099 cycles
cpu0_DTLB AVERAGE itMISS LATENCY: 0 cycles
cpu0_DTLB AVERAGE dtMISS LATENCY: 0 cycles
cpu0_DTLB PAGE CROSSINGS (TLB HIT):         0 
cpu0_DTLB PAGE CROSSINGS (TLB MISS):         0 
cpu0_DTLB AVERAGE MISS LATENCY: 6.45099 cycles
cpu0_STLB TOTAL       ACCESS:    2330277  HIT:    2172599  MISS:     157678  iACCESS:     354733  iHIT:     297550  iMISS:      57183  dACCESS:    1975544  dHIT:    1875049  dMISS:     100495  itACCESS:          0  itHIT:          0  itMISS:          0  dtACCESS:          0  dtHIT:          0  dtMISS:          0
cpu0_STLB LOAD         ACCESS:    2330277  HIT:    2172599  MISS:     157678  iACCESS:     354733  iHIT:     297550  iMISS:      57183  dACCESS:    1975544  dHIT:    1875049  dMISS:     100495  itACCESS:          0  itHIT:          0  itMISS:          0  dtACCESS:          0  dtHIT:          0  dtMISS:          0
cpu0_STLB RFO          ACCESS:          0  HIT:          0  MISS:          0  iACCESS:          0  iHIT:          0  iMISS:          0  dACCESS:          0  dHIT:          0  dMISS:          0  itACCESS:          0  itHIT:          0  itMISS:          0  dtACCESS:          0  dtHIT:          0  dtMISS:          0
cpu0_STLB PREFETCH     ACCESS:          0  HIT:          0  MISS:          0  iACCESS:          0  iHIT:          0  iMISS:          0  dACCESS:          0  dHIT:          0  dMISS:          0  itACCESS:          0  itHIT:          0  itMISS:          0  dtACCESS:          0  dtHIT:          0  dtMISS:          0
cpu0_STLB WRITE        ACCESS:          0  HIT:          0  MISS:          0  iACCESS:          0  iHIT:          0  iMISS:          0  dACCESS:          0  dHIT:          0  dMISS:          0  itACCESS:          0  itHIT:          0  itMISS:          0  dtACCESS:          0  dtHIT:          0  dtMISS:          0
cpu0_STLB TRANSLATION  ACCESS:          0  HIT:          0  MISS:          0  iACCESS:          0  iHIT:          0  iMISS:          0  dACCESS:          0  dHIT:          0  dMISS:          0  itACCESS:          0  itHIT:          0  itMISS:          0  dtACCESS:          0  dtHIT:          0  dtMISS:          0
cpu0_STLB PREFETCH  REQUESTED:          0  ISSUED:          0  CROSSED:          0  USEFUL:          0  USELESS:          0
cpu0_STLB AVERAGE iMISS LATENCY: 14.8854 cycles
cpu0_STLB AVERAGE dMISS LATENCY: 49.5632 cycles
cpu0_STLB AVERAGE itMISS LATENCY: 0 cycles
cpu0_STLB AVERAGE dtMISS LATENCY: 0 cycles
cpu0_STLB PAGE CROSSINGS (TLB HIT):         0 
cpu0_STLB PAGE CROSSINGS (TLB MISS):         0 
cpu0_STLB AVERAGE MISS LATENCY: 64.4485 cycles
cpu0_L1D TOTAL       ACCESS:   44222337  HIT:   38459826  MISS:    5762511  iACCESS:          0  iHIT:          0  iMISS:          0  dACCESS:   44006447  dHIT:   38440524  dMISS:    5565923  itACCESS:      62156  itHIT:       8862  itMISS:      53294  dtACCESS:     153734  dtHIT:      10440  dtMISS:     143294
cpu0_L1D LOAD         ACCESS:   21049375  HIT:   17937265  MISS:    3112110  iACCESS:          0  iHIT:          0  iMISS:          0  dACCESS:   21049375  dHIT:   17937265  dMISS:    3112110  itACCESS:          0  itHIT:          0  itMISS:          0  dtACCESS:          0  dtHIT:          0  dtMISS:          0
cpu0_L1D RFO          ACCESS:          0  HIT:          0  MISS:          0  iACCESS:          0  iHIT:          0  iMISS:          0  dACCESS:          0  dHIT:          0  dMISS:          0  itACCESS:          0  itHIT:          0  itMISS:          0  dtACCESS:          0  dtHIT:          0  dtMISS:          0
cpu0_L1D PREFETCH     ACCESS:   13034385  HIT:   11011463  MISS:    2022922  iACCESS:          0  iHIT:          0  iMISS:          0  dACCESS:   13034385  dHIT:   11011463  dMISS:    2022922  itACCESS:          0  itHIT:          0  itMISS:          0  dtACCESS:          0  dtHIT:          0  dtMISS:          0
cpu0_L1D WRITE        ACCESS:    9922687  HIT:    9491796  MISS:     430891  iACCESS:          0  iHIT:          0  iMISS:          0  dACCESS:    9922687  dHIT:    9491796  dMISS:     430891  itACCESS:          0  itHIT:          0  itMISS:          0  dtACCESS:          0  dtHIT:          0  dtMISS:          0
cpu0_L1D TRANSLATION  ACCESS:     215890  HIT:      19302  MISS:     196588  iACCESS:          0  iHIT:          0  iMISS:          0  dACCESS:          0  dHIT:          0  dMISS:          0  itACCESS:      62156  itHIT:       8862  itMISS:      53294  dtACCESS:     153734  dtHIT:      10440  dtMISS:     143294
cpu0_L1D PREFETCH  REQUESTED:   21049375  ISSUED:   17204053  CROSSED:          0  USEFUL:     278469  USELESS:     724924
cpu0_L1D AVERAGE iMISS LATENCY: 0 cycles
cpu0_L1D AVERAGE dMISS LATENCY: 25.0615 cycles
cpu0_L1D AVERAGE itMISS LATENCY: 0.318445 cycles
cpu0_L1D AVERAGE dtMISS LATENCY: 0.933353 cycles
cpu0_L1D PAGE CROSSINGS (TLB HIT):         0 
cpu0_L1D PAGE CROSSINGS (TLB MISS):         0 
cpu0_L1D AVERAGE MISS LATENCY: 26.3133 cycles
cpu0_L2C TOTAL       ACCESS:    7539543  HIT:    1548546  MISS:    5990997  iACCESS:    2995901  iHIT:     627875  iMISS:    2368026  dACCESS:    4357356  dHIT:     769359  dMISS:    3587997  itACCESS:      53294  itHIT:      43293  itMISS:      10001  dtACCESS:     132992  dtHIT:     108019  dtMISS:      24973
cpu0_L2C LOAD         ACCESS:    2655078  HIT:     508992  MISS:    2146086  iACCESS:     719094  iHIT:      96573  iMISS:     622521  dACCESS:    1935984  dHIT:     412419  dMISS:    1523565  itACCESS:          0  itHIT:          0  itMISS:          0  dtACCESS:          0  dtHIT:          0  dtMISS:          0
cpu0_L2C RFO          ACCESS:     158965  HIT:      23103  MISS:     135862  iACCESS:          0  iHIT:          0  iMISS:          0  dACCESS:     158965  dHIT:      23103  dMISS:     135862  itACCESS:          0  itHIT:          0  itMISS:          0  dtACCESS:          0  dtHIT:          0  dtMISS:          0
cpu0_L2C PREFETCH     ACCESS:    4280410  HIT:     813537  MISS:    3466873  iACCESS:    2276807  iHIT:     531302  iMISS:    1745505  dACCESS:    2003603  dHIT:     282235  dMISS:    1721368  itACCESS:          0  itHIT:          0  itMISS:          0  dtACCESS:          0  dtHIT:          0  dtMISS:          0
cpu0_L2C WRITE        ACCESS:     258804  HIT:      51602  MISS:     207202  iACCESS:          0  iHIT:          0  iMISS:          0  dACCESS:     258804  dHIT:      51602  dMISS:     207202  itACCESS:          0  itHIT:          0  itMISS:          0  dtACCESS:          0  dtHIT:          0  dtMISS:          0
cpu0_L2C TRANSLATION  ACCESS:     186286  HIT:     151312  MISS:      34974  iACCESS:          0  iHIT:          0  iMISS:          0  dACCESS:          0  dHIT:          0  dMISS:          0  itACCESS:      53294  itHIT:      43293  itMISS:      10001  dtACCESS:     132992  dtHIT:     108019  dtMISS:      24973
cpu0_L2C PREFETCH  REQUESTED:    1227531  ISSUED:    1227531  CROSSED:          0  USEFUL:     366774  USELESS:     351579
cpu0_L2C AVERAGE iMISS LATENCY: 13.8297 cycles
cpu0_L2C AVERAGE dMISS LATENCY: 25.2721 cycles
cpu0_L2C AVERAGE itMISS LATENCY: 0.224381 cycles
cpu0_L2C AVERAGE dtMISS LATENCY: 0.692756 cycles
cpu0_L2C PAGE CROSSINGS (TLB HIT):         0 
cpu0_L2C PAGE CROSSINGS (TLB MISS):         0 
cpu0_L2C AVERAGE MISS LATENCY: 40.0189 cycles
LLC TOTAL       ACCESS:    5906128  HIT:    5092715  MISS:     813413  iACCESS:    2317780  iHIT:    2061252  iMISS:     256528  dACCESS:    3553374  dHIT:    3023725  dMISS:     529649  itACCESS:      10001  itHIT:       3361  itMISS:       6640  dtACCESS:      24973  dtHIT:       4377  dtMISS:      20596
LLC LOAD         ACCESS:    2143654  HIT:    1955160  MISS:     188494  iACCESS:     621143  iHIT:     565663  iMISS:      55480  dACCESS:    1522511  dHIT:    1389497  dMISS:     133014  itACCESS:          0  itHIT:          0  itMISS:          0  dtACCESS:          0  dtHIT:          0  dtMISS:          0
LLC RFO          ACCESS:     135848  HIT:      93568  MISS:      42280  iACCESS:          0  iHIT:          0  iMISS:          0  dACCESS:     135848  dHIT:      93568  dMISS:      42280  itACCESS:          0  itHIT:          0  itMISS:          0  dtACCESS:          0  dtHIT:          0  dtMISS:          0
LLC PREFETCH     ACCESS:    3358186  HIT:    2802783  MISS:     555403  iACCESS:    1696637  iHIT:    1495589  iMISS:     201048  dACCESS:    1661549  dHIT:    1307194  dMISS:     354355  itACCESS:          0  itHIT:          0  itMISS:          0  dtACCESS:          0  dtHIT:          0  dtMISS:          0
LLC WRITE        ACCESS:     233466  HIT:     233466  MISS:          0  iACCESS:          0  iHIT:          0  iMISS:          0  dACCESS:     233466  dHIT:     233466  dMISS:          0  itACCESS:          0  itHIT:          0  itMISS:          0  dtACCESS:          0  dtHIT:          0  dtMISS:          0
LLC TRANSLATION  ACCESS:      34974  HIT:       7738  MISS:      27236  iACCESS:          0  iHIT:          0  iMISS:          0  dACCESS:          0  dHIT:          0  dMISS:          0  itACCESS:      10001  itHIT:       3361  itMISS:       6640  dtACCESS:      24973  dtHIT:       4377  dtMISS:      20596
LLC PREFETCH  REQUESTED:          0  ISSUED:          0  CROSSED:          0  USEFUL:          0  USELESS:          0
LLC AVERAGE iMISS LATENCY: 46.8327 cycles
LLC AVERAGE dMISS LATENCY: 107.22 cycles
LLC AVERAGE itMISS LATENCY: 1.41132 cycles
LLC AVERAGE dtMISS LATENCY: 4.49699 cycles
LLC PAGE CROSSINGS (TLB HIT):         0 
LLC PAGE CROSSINGS (TLB MISS):         0 
LLC AVERAGE MISS LATENCY: 159.961 cycles

PageTableWalker TOTAL       ACCESS:      74332  
PageTableWalker AVERAGE LATENCY: 4.21655 cycles
PageTableWalker TOTAL LATENCY: 313424 cycles

DRAM Statistics
Channel 0
 RQ ROW_BUFFER_HIT:     227291
  ROW_BUFFER_MISS:     585346
 AVG DBUS CONGESTED CYCLE:    3.64305
 WQ ROW_BUFFER_HIT:      21253
  ROW_BUFFER_MISS:      29161  FULL:          0

