last_page:0x200000000000000
VMEM_RES_CAP:0x100000
PAGE_SIZE:4096
LOG2_PAGE_SIZE:12
LOG2_PAGE_TABLE_SIZE:9
page_table_levels:5
WARNING: physical memory size is smaller than virtual memory size
FDiP enabled with aggresivity 16

*** ChampSim Multicore Out-of-Order Simulator ***

Warmup Instructions: 50000000
Simulation Instructions: 100000000
Number of CPUs: 1
Small page size: 4096
Large page size: 2097152

CPU 0 Bimodal branch predictor
Basic BTB sets: 1024 ways: 8 indirect buffer size: 4096 RAS size: 64
Instruction page size distrubution: 0
Loading instruction page size distribution from /home/bsc/bsc018186/scratch/itp_asplos25_AE/dump/srv359_ap.pdst
Data page size distrubution: 0
Loading data page size distribution from /home/bsc/bsc018186/scratch/itp_asplos25_AE/dump/srv359_ap.pdst
cpu0_L2C IP-based stride prefetcher
cpu0_L1D next line prefetcher
cpu0_L1I next line prefetcher
Off-chip DRAM Size: 4 GiB Channels: 1 Width: 64-bit Data Rate: 3200 MT/s
Heartbeat CPU 0 instructions: 10000001 cycles: 2500194 heartbeat IPC: 3.9997 cumulative IPC: 3.9997 (Simulation time: 0 hr 0 min 34 sec) 
Heartbeat CPU 0 instructions: 20000003 cycles: 5000405 heartbeat IPC: 3.99967 cumulative IPC: 3.99968 (Simulation time: 0 hr 1 min 11 sec) 
Heartbeat CPU 0 instructions: 30000000 cycles: 7500405 heartbeat IPC: 4 cumulative IPC: 3.99979 (Simulation time: 0 hr 1 min 48 sec) 
Heartbeat CPU 0 instructions: 40000000 cycles: 10000701 heartbeat IPC: 3.99953 cumulative IPC: 3.99972 (Simulation time: 0 hr 2 min 25 sec) 
Heartbeat CPU 0 instructions: 50000002 cycles: 12857694 heartbeat IPC: 3.50019 cumulative IPC: 3.88873 (Simulation time: 0 hr 3 min 3 sec) 
Warmup finished CPU 0 instructions: 50000002 cycles: 12857695 cumulative IPC: 3.88873 (Simulation time: 0 hr 3 min 3 sec) 

Warmup complete CPU 0 instructions: 50000002 cycles: 12857695 (Simulation time: 0 hr 3 min 3 sec) 

Heartbeat CPU 0 instructions: 60000001 cycles: 24537042 heartbeat IPC: 0.856213 cumulative IPC: 0.856213 (Simulation time: 0 hr 3 min 58 sec) 
Heartbeat CPU 0 instructions: 70000002 cycles: 39958718 heartbeat IPC: 0.648439 cumulative IPC: 0.73798 (Simulation time: 0 hr 4 min 59 sec) 
Heartbeat CPU 0 instructions: 80000000 cycles: 55073065 heartbeat IPC: 0.661623 cumulative IPC: 0.710642 (Simulation time: 0 hr 5 min 59 sec) 
Heartbeat CPU 0 instructions: 90000000 cycles: 71263613 heartbeat IPC: 0.617645 cumulative IPC: 0.684863 (Simulation time: 0 hr 7 min 0 sec) 
Heartbeat CPU 0 instructions: 100000003 cycles: 87417958 heartbeat IPC: 0.619029 cumulative IPC: 0.670599 (Simulation time: 0 hr 8 min 2 sec) 
*** Reached end of trace: /gpfs/projects/bsc18/MN4/bsc18/romol/ChampSim/traces/qualcomm_srv/srv359_ap.champsimtrace.xz
Heartbeat CPU 0 instructions: 110000003 cycles: 101652665 heartbeat IPC: 0.702509 cumulative IPC: 0.675714 (Simulation time: 0 hr 9 min 1 sec) 
Heartbeat CPU 0 instructions: 120000000 cycles: 117071955 heartbeat IPC: 0.648539 cumulative IPC: 0.671694 (Simulation time: 0 hr 10 min 1 sec) 
Heartbeat CPU 0 instructions: 130000000 cycles: 131829622 heartbeat IPC: 0.677614 cumulative IPC: 0.672428 (Simulation time: 0 hr 11 min 1 sec) 
Heartbeat CPU 0 instructions: 140000002 cycles: 147660243 heartbeat IPC: 0.631688 cumulative IPC: 0.667644 (Simulation time: 0 hr 12 min 2 sec) 
Heartbeat CPU 0 instructions: 150000000 cycles: 159958007 heartbeat IPC: 0.813156 cumulative IPC: 0.679809 (Simulation time: 0 hr 13 min 0 sec) 
Simulation finished CPU 0 instructions: 100000001 cycles: 147100317 cumulative IPC: 0.679809 (Simulation time: 0 hr 13 min 0 sec) 

Simulation complete CPU 0 instructions: 100000001 cycles: 147100317 (Simulation time: 0 hr 13 min 0 sec) 


ChampSim completed all CPUs

Saving instructions large page distribution to /home/bsc/bsc018186/scratch/itp_asplos25_AE/dump/srv359_ap.pdst...
Saving data large page distribution to /home/bsc/bsc018186/scratch/itp_asplos25_AE/dump/srv359_ap.pdst...
=== Simulation ===
CPU 0 runs /gpfs/projects/bsc18/MN4/bsc18/romol/ChampSim/traces/qualcomm_srv/srv359_ap.champsimtrace.xz

Region of Interest Statistics

CPU 0 cumulative IPC: 0.679809 instructions: 100000001 cycles: 147100317
CPU 0 Branch Prediction Accuracy: 85.221% MPKI: 27.8546 Average ROB Occupancy at Mispredict: 13.6374
Branch type MPKI
BRANCH_DIRECT_JUMP: 0.92817
BRANCH_INDIRECT: 14.5363
BRANCH_CONDITIONAL: 8.9847
BRANCH_DIRECT_CALL: 1.67338
BRANCH_INDIRECT_CALL: 0.51723
BRANCH_RETURN: 1.21479

Instructions large pages: 0
Instructions small pages: 1096
Large page distribution for instructions: 0%

Data large pages: 0
Data small pages: 9809
Large page distribution for data: 0%

cpu0_L1I TOTAL       ACCESS:   34152031  HIT:   27027175  MISS:    7124856  iACCESS:   34152031  iHIT:   27027175  iMISS:    7124856  dACCESS:          0  dHIT:          0  dMISS:          0  itACCESS:          0  itHIT:          0  itMISS:          0  dtACCESS:          0  dtHIT:          0  dtMISS:          0
cpu0_L1I LOAD         ACCESS:    9452875  HIT:    7444050  MISS:    2008825  iACCESS:    9452875  iHIT:    7444050  iMISS:    2008825  dACCESS:          0  dHIT:          0  dMISS:          0  itACCESS:          0  itHIT:          0  itMISS:          0  dtACCESS:          0  dtHIT:          0  dtMISS:          0
cpu0_L1I RFO          ACCESS:          0  HIT:          0  MISS:          0  iACCESS:          0  iHIT:          0  iMISS:          0  dACCESS:          0  dHIT:          0  dMISS:          0  itACCESS:          0  itHIT:          0  itMISS:          0  dtACCESS:          0  dtHIT:          0  dtMISS:          0
cpu0_L1I PREFETCH     ACCESS:   24699156  HIT:   19583125  MISS:    5116031  iACCESS:   24699156  iHIT:   19583125  iMISS:    5116031  dACCESS:          0  dHIT:          0  dMISS:          0  itACCESS:          0  itHIT:          0  itMISS:          0  dtACCESS:          0  dtHIT:          0  dtMISS:          0
cpu0_L1I WRITE        ACCESS:          0  HIT:          0  MISS:          0  iACCESS:          0  iHIT:          0  iMISS:          0  dACCESS:          0  dHIT:          0  dMISS:          0  itACCESS:          0  itHIT:          0  itMISS:          0  dtACCESS:          0  dtHIT:          0  dtMISS:          0
cpu0_L1I TRANSLATION  ACCESS:          0  HIT:          0  MISS:          0  iACCESS:          0  iHIT:          0  iMISS:          0  dACCESS:          0  dHIT:          0  dMISS:          0  itACCESS:          0  itHIT:          0  itMISS:          0  dtACCESS:          0  dtHIT:          0  dtMISS:          0
cpu0_L1I PREFETCH  REQUESTED:   27082266  ISSUED:   27082266  CROSSED:          0  USEFUL:    1724611  USELESS:     573600
cpu0_L1I AVERAGE iMISS LATENCY: 13.4641 cycles
cpu0_L1I AVERAGE dMISS LATENCY: 0 cycles
cpu0_L1I AVERAGE itMISS LATENCY: 0 cycles
cpu0_L1I AVERAGE dtMISS LATENCY: 0 cycles
cpu0_L1I PAGE CROSSINGS (TLB HIT):         0 
cpu0_L1I PAGE CROSSINGS (TLB MISS):         0 
cpu0_L1I AVERAGE MISS LATENCY: 13.4641 cycles
cpu0_ITLB TOTAL       ACCESS:   28563744  HIT:   26749353  MISS:    1814391  iACCESS:   28563744  iHIT:   26749353  iMISS:    1814391  dACCESS:          0  dHIT:          0  dMISS:          0  itACCESS:          0  itHIT:          0  itMISS:          0  dtACCESS:          0  dtHIT:          0  dtMISS:          0
cpu0_ITLB LOAD         ACCESS:   28563744  HIT:   26749353  MISS:    1814391  iACCESS:   28563744  iHIT:   26749353  iMISS:    1814391  dACCESS:          0  dHIT:          0  dMISS:          0  itACCESS:          0  itHIT:          0  itMISS:          0  dtACCESS:          0  dtHIT:          0  dtMISS:          0
cpu0_ITLB RFO          ACCESS:          0  HIT:          0  MISS:          0  iACCESS:          0  iHIT:          0  iMISS:          0  dACCESS:          0  dHIT:          0  dMISS:          0  itACCESS:          0  itHIT:          0  itMISS:          0  dtACCESS:          0  dtHIT:          0  dtMISS:          0
cpu0_ITLB PREFETCH     ACCESS:          0  HIT:          0  MISS:          0  iACCESS:          0  iHIT:          0  iMISS:          0  dACCESS:          0  dHIT:          0  dMISS:          0  itACCESS:          0  itHIT:          0  itMISS:          0  dtACCESS:          0  dtHIT:          0  dtMISS:          0
cpu0_ITLB WRITE        ACCESS:          0  HIT:          0  MISS:          0  iACCESS:          0  iHIT:          0  iMISS:          0  dACCESS:          0  dHIT:          0  dMISS:          0  itACCESS:          0  itHIT:          0  itMISS:          0  dtACCESS:          0  dtHIT:          0  dtMISS:          0
cpu0_ITLB TRANSLATION  ACCESS:          0  HIT:          0  MISS:          0  iACCESS:          0  iHIT:          0  iMISS:          0  dACCESS:          0  dHIT:          0  dMISS:          0  itACCESS:          0  itHIT:          0  itMISS:          0  dtACCESS:          0  dtHIT:          0  dtMISS:          0
cpu0_ITLB PREFETCH  REQUESTED:          0  ISSUED:          0  CROSSED:          0  USEFUL:     292436  USELESS:      62298
cpu0_ITLB AVERAGE iMISS LATENCY: 5.37453 cycles
cpu0_ITLB AVERAGE dMISS LATENCY: 0 cycles
cpu0_ITLB AVERAGE itMISS LATENCY: 0 cycles
cpu0_ITLB AVERAGE dtMISS LATENCY: 0 cycles
cpu0_ITLB PAGE CROSSINGS (TLB HIT):         0 
cpu0_ITLB PAGE CROSSINGS (TLB MISS):         0 
cpu0_ITLB AVERAGE MISS LATENCY: 5.37453 cycles
cpu0_DTLB TOTAL       ACCESS:   29034191  HIT:   25326219  MISS:    3707972  iACCESS:          0  iHIT:          0  iMISS:          0  dACCESS:   29034191  dHIT:   25326219  dMISS:    3707972  itACCESS:          0  itHIT:          0  itMISS:          0  dtACCESS:          0  dtHIT:          0  dtMISS:          0
cpu0_DTLB LOAD         ACCESS:   29034191  HIT:   25326219  MISS:    3707972  iACCESS:          0  iHIT:          0  iMISS:          0  dACCESS:   29034191  dHIT:   25326219  dMISS:    3707972  itACCESS:          0  itHIT:          0  itMISS:          0  dtACCESS:          0  dtHIT:          0  dtMISS:          0
cpu0_DTLB RFO          ACCESS:          0  HIT:          0  MISS:          0  iACCESS:          0  iHIT:          0  iMISS:          0  dACCESS:          0  dHIT:          0  dMISS:          0  itACCESS:          0  itHIT:          0  itMISS:          0  dtACCESS:          0  dtHIT:          0  dtMISS:          0
cpu0_DTLB PREFETCH     ACCESS:          0  HIT:          0  MISS:          0  iACCESS:          0  iHIT:          0  iMISS:          0  dACCESS:          0  dHIT:          0  dMISS:          0  itACCESS:          0  itHIT:          0  itMISS:          0  dtACCESS:          0  dtHIT:          0  dtMISS:          0
cpu0_DTLB WRITE        ACCESS:          0  HIT:          0  MISS:          0  iACCESS:          0  iHIT:          0  iMISS:          0  dACCESS:          0  dHIT:          0  dMISS:          0  itACCESS:          0  itHIT:          0  itMISS:          0  dtACCESS:          0  dtHIT:          0  dtMISS:          0
cpu0_DTLB TRANSLATION  ACCESS:          0  HIT:          0  MISS:          0  iACCESS:          0  iHIT:          0  iMISS:          0  dACCESS:          0  dHIT:          0  dMISS:          0  itACCESS:          0  itHIT:          0  itMISS:          0  dtACCESS:          0  dtHIT:          0  dtMISS:          0
cpu0_DTLB PREFETCH  REQUESTED:          0  ISSUED:          0  CROSSED:          0  USEFUL:          0  USELESS:          0
cpu0_DTLB AVERAGE iMISS LATENCY: 0 cycles
cpu0_DTLB AVERAGE dMISS LATENCY: 9.57926 cycles
cpu0_DTLB AVERAGE itMISS LATENCY: 0 cycles
cpu0_DTLB AVERAGE dtMISS LATENCY: 0 cycles
cpu0_DTLB PAGE CROSSINGS (TLB HIT):         0 
cpu0_DTLB PAGE CROSSINGS (TLB MISS):         0 
cpu0_DTLB AVERAGE MISS LATENCY: 9.57926 cycles
cpu0_STLB TOTAL       ACCESS:    2332710  HIT:    2175041  MISS:     157669  iACCESS:     354735  iHIT:     297556  iMISS:      57179  dACCESS:    1977975  dHIT:    1877485  dMISS:     100490  itACCESS:          0  itHIT:          0  itMISS:          0  dtACCESS:          0  dtHIT:          0  dtMISS:          0
cpu0_STLB LOAD         ACCESS:    2332710  HIT:    2175041  MISS:     157669  iACCESS:     354735  iHIT:     297556  iMISS:      57179  dACCESS:    1977975  dHIT:    1877485  dMISS:     100490  itACCESS:          0  itHIT:          0  itMISS:          0  dtACCESS:          0  dtHIT:          0  dtMISS:          0
cpu0_STLB RFO          ACCESS:          0  HIT:          0  MISS:          0  iACCESS:          0  iHIT:          0  iMISS:          0  dACCESS:          0  dHIT:          0  dMISS:          0  itACCESS:          0  itHIT:          0  itMISS:          0  dtACCESS:          0  dtHIT:          0  dtMISS:          0
cpu0_STLB PREFETCH     ACCESS:          0  HIT:          0  MISS:          0  iACCESS:          0  iHIT:          0  iMISS:          0  dACCESS:          0  dHIT:          0  dMISS:          0  itACCESS:          0  itHIT:          0  itMISS:          0  dtACCESS:          0  dtHIT:          0  dtMISS:          0
cpu0_STLB WRITE        ACCESS:          0  HIT:          0  MISS:          0  iACCESS:          0  iHIT:          0  iMISS:          0  dACCESS:          0  dHIT:          0  dMISS:          0  itACCESS:          0  itHIT:          0  itMISS:          0  dtACCESS:          0  dtHIT:          0  dtMISS:          0
cpu0_STLB TRANSLATION  ACCESS:          0  HIT:          0  MISS:          0  iACCESS:          0  iHIT:          0  iMISS:          0  dACCESS:          0  dHIT:          0  dMISS:          0  itACCESS:          0  itHIT:          0  itMISS:          0  dtACCESS:          0  dtHIT:          0  dtMISS:          0
cpu0_STLB PREFETCH  REQUESTED:          0  ISSUED:          0  CROSSED:          0  USEFUL:          0  USELESS:          0
cpu0_STLB AVERAGE iMISS LATENCY: 44.0292 cycles
cpu0_STLB AVERAGE dMISS LATENCY: 124.273 cycles
cpu0_STLB AVERAGE itMISS LATENCY: 0 cycles
cpu0_STLB AVERAGE dtMISS LATENCY: 0 cycles
cpu0_STLB PAGE CROSSINGS (TLB HIT):         0 
cpu0_STLB PAGE CROSSINGS (TLB MISS):         0 
cpu0_STLB AVERAGE MISS LATENCY: 168.302 cycles
cpu0_L1D TOTAL       ACCESS:   43342907  HIT:   38442611  MISS:    4900296  iACCESS:          0  iHIT:          0  iMISS:          0  dACCESS:   43129421  dHIT:   38423518  dMISS:    4705903  itACCESS:      62152  itHIT:       8865  itMISS:      53287  dtACCESS:     151334  dtHIT:      10228  dtMISS:     141106
cpu0_L1D LOAD         ACCESS:   20566128  HIT:   17846801  MISS:    2719327  iACCESS:          0  iHIT:          0  iMISS:          0  dACCESS:   20566128  dHIT:   17846801  dMISS:    2719327  itACCESS:          0  itHIT:          0  itMISS:          0  dtACCESS:          0  dtHIT:          0  dtMISS:          0
cpu0_L1D RFO          ACCESS:          0  HIT:          0  MISS:          0  iACCESS:          0  iHIT:          0  iMISS:          0  dACCESS:          0  dHIT:          0  dMISS:          0  itACCESS:          0  itHIT:          0  itMISS:          0  dtACCESS:          0  dtHIT:          0  dtMISS:          0
cpu0_L1D PREFETCH     ACCESS:   12641528  HIT:   11075241  MISS:    1566287  iACCESS:          0  iHIT:          0  iMISS:          0  dACCESS:   12641528  dHIT:   11075241  dMISS:    1566287  itACCESS:          0  itHIT:          0  itMISS:          0  dtACCESS:          0  dtHIT:          0  dtMISS:          0
cpu0_L1D WRITE        ACCESS:    9921765  HIT:    9501476  MISS:     420289  iACCESS:          0  iHIT:          0  iMISS:          0  dACCESS:    9921765  dHIT:    9501476  dMISS:     420289  itACCESS:          0  itHIT:          0  itMISS:          0  dtACCESS:          0  dtHIT:          0  dtMISS:          0
cpu0_L1D TRANSLATION  ACCESS:     213486  HIT:      19093  MISS:     194393  iACCESS:          0  iHIT:          0  iMISS:          0  dACCESS:          0  dHIT:          0  dMISS:          0  itACCESS:      62152  itHIT:       8865  itMISS:      53287  dtACCESS:     151334  dtHIT:      10228  dtMISS:     141106
cpu0_L1D PREFETCH  REQUESTED:   20566128  ISSUED:   17302117  CROSSED:          0  USEFUL:     277519  USELESS:     819357
cpu0_L1D AVERAGE iMISS LATENCY: 0 cycles
cpu0_L1D AVERAGE dMISS LATENCY: 25.0403 cycles
cpu0_L1D AVERAGE itMISS LATENCY: 1.31235 cycles
cpu0_L1D AVERAGE dtMISS LATENCY: 3.48732 cycles
cpu0_L1D PAGE CROSSINGS (TLB HIT):         0 
cpu0_L1D PAGE CROSSINGS (TLB MISS):         0 
cpu0_L1D AVERAGE MISS LATENCY: 29.8399 cycles
cpu0_L2C TOTAL       ACCESS:    7738836  HIT:    5084660  MISS:    2654176  iACCESS:    2994851  iHIT:    2001220  iMISS:     993631  dACCESS:    4557581  dHIT:    3057575  dMISS:    1500006  itACCESS:      53287  itHIT:       9119  itMISS:      44168  dtACCESS:     133117  dtHIT:      16746  dtMISS:     116371
cpu0_L2C LOAD         ACCESS:    2767053  HIT:    2136497  MISS:     630556  iACCESS:     729121  iHIT:     508569  iMISS:     220552  dACCESS:    2037932  dHIT:    1627928  dMISS:     410004  itACCESS:          0  itHIT:          0  itMISS:          0  dtACCESS:          0  dtHIT:          0  dtMISS:          0
cpu0_L2C RFO          ACCESS:     158664  HIT:      82765  MISS:      75899  iACCESS:          0  iHIT:          0  iMISS:          0  dACCESS:     158664  dHIT:      82765  dMISS:      75899  itACCESS:          0  itHIT:          0  itMISS:          0  dtACCESS:          0  dtHIT:          0  dtMISS:          0
cpu0_L2C PREFETCH     ACCESS:    4367522  HIT:    2582492  MISS:    1785030  iACCESS:    2265730  iHIT:    1492651  iMISS:     773079  dACCESS:    2101792  dHIT:    1089841  dMISS:    1011951  itACCESS:          0  itHIT:          0  itMISS:          0  dtACCESS:          0  dtHIT:          0  dtMISS:          0
cpu0_L2C WRITE        ACCESS:     259193  HIT:     257041  MISS:       2152  iACCESS:          0  iHIT:          0  iMISS:          0  dACCESS:     259193  dHIT:     257041  dMISS:       2152  itACCESS:          0  itHIT:          0  itMISS:          0  dtACCESS:          0  dtHIT:          0  dtMISS:          0
cpu0_L2C TRANSLATION  ACCESS:     186404  HIT:      25865  MISS:     160539  iACCESS:          0  iHIT:          0  iMISS:          0  dACCESS:          0  dHIT:          0  dMISS:          0  itACCESS:      53287  itHIT:       9119  itMISS:      44168  dtACCESS:     133117  dtHIT:      16746  dtMISS:     116371
cpu0_L2C PREFETCH  REQUESTED:    1229371  ISSUED:    1229268  CROSSED:          0  USEFUL:     277428  USELESS:     209153
cpu0_L2C AVERAGE iMISS LATENCY: 26.0624 cycles
cpu0_L2C AVERAGE dMISS LATENCY: 47.054 cycles
cpu0_L2C AVERAGE itMISS LATENCY: 2.22514 cycles
cpu0_L2C AVERAGE dtMISS LATENCY: 5.93941 cycles
cpu0_L2C PAGE CROSSINGS (TLB HIT):         0 
cpu0_L2C PAGE CROSSINGS (TLB MISS):         0 
cpu0_L2C AVERAGE MISS LATENCY: 81.2809 cycles
LLC TOTAL       ACCESS:    2675169  HIT:    1632620  MISS:    1042549  iACCESS:     946437  iHIT:     608011  iMISS:     338426  dACCESS:    1568193  dHIT:     967832  dMISS:     600361  itACCESS:      44168  itHIT:      14663  itMISS:      29505  dtACCESS:     116371  dtHIT:      42114  dtMISS:      74257
LLC LOAD         ACCESS:     628960  HIT:     402597  MISS:     226363  iACCESS:     219742  iHIT:     144377  iMISS:      75365  dACCESS:     409218  dHIT:     258220  dMISS:     150998  itACCESS:          0  itHIT:          0  itMISS:          0  dtACCESS:          0  dtHIT:          0  dtMISS:          0
LLC RFO          ACCESS:      75896  HIT:      36838  MISS:      39058  iACCESS:          0  iHIT:          0  iMISS:          0  dACCESS:      75896  dHIT:      36838  dMISS:      39058  itACCESS:          0  itHIT:          0  itMISS:          0  dtACCESS:          0  dtHIT:          0  dtMISS:          0
LLC PREFETCH     ACCESS:    1687890  HIT:    1020782  MISS:     667108  iACCESS:     726695  iHIT:     463634  iMISS:     263061  dACCESS:     961195  dHIT:     557148  dMISS:     404047  itACCESS:          0  itHIT:          0  itMISS:          0  dtACCESS:          0  dtHIT:          0  dtMISS:          0
LLC WRITE        ACCESS:     121884  HIT:     115626  MISS:       6258  iACCESS:          0  iHIT:          0  iMISS:          0  dACCESS:     121884  dHIT:     115626  dMISS:       6258  itACCESS:          0  itHIT:          0  itMISS:          0  dtACCESS:          0  dtHIT:          0  dtMISS:          0
LLC TRANSLATION  ACCESS:     160539  HIT:      56777  MISS:     103762  iACCESS:          0  iHIT:          0  iMISS:          0  dACCESS:          0  dHIT:          0  dMISS:          0  itACCESS:      44168  itHIT:      14663  itMISS:      29505  dtACCESS:     116371  dtHIT:      42114  dtMISS:      74257
LLC PREFETCH  REQUESTED:          0  ISSUED:          0  CROSSED:          0  USEFUL:          0  USELESS:          0
LLC AVERAGE iMISS LATENCY: 48.6918 cycles
LLC AVERAGE dMISS LATENCY: 93.0137 cycles
LLC AVERAGE itMISS LATENCY: 4.83359 cycles
LLC AVERAGE dtMISS LATENCY: 12.9359 cycles
LLC PAGE CROSSINGS (TLB HIT):         0 
LLC PAGE CROSSINGS (TLB MISS):         0 
LLC AVERAGE MISS LATENCY: 159.475 cycles

PageTableWalker TOTAL       ACCESS:      74339  
PageTableWalker AVERAGE LATENCY: 5.29276 cycles
PageTableWalker TOTAL LATENCY: 393458 cycles

DRAM Statistics
Channel 0
 RQ ROW_BUFFER_HIT:     263744
  ROW_BUFFER_MISS:     771751
 AVG DBUS CONGESTED CYCLE:    3.62787
 WQ ROW_BUFFER_HIT:      21747
  ROW_BUFFER_MISS:      20605  FULL:          0

