last_page:0x200000000000000
VMEM_RES_CAP:0x100000
PAGE_SIZE:4096
LOG2_PAGE_SIZE:12
LOG2_PAGE_TABLE_SIZE:9
page_table_levels:5
WARNING: physical memory size is smaller than virtual memory size
FDiP enabled with aggresivity 16

*** ChampSim Multicore Out-of-Order Simulator ***

Warmup Instructions: 50000000
Simulation Instructions: 100000000
Number of CPUs: 1
Small page size: 4096
Large page size: 2097152

CPU 0 Bimodal branch predictor
Basic BTB sets: 1024 ways: 8 indirect buffer size: 4096 RAS size: 64
Instruction page size distrubution: 0
Loading instruction page size distribution from /home/bsc/bsc018186/scratch/itp_asplos25_AE/dump/srv393_ap.pdst
Data page size distrubution: 0
Loading data page size distribution from /home/bsc/bsc018186/scratch/itp_asplos25_AE/dump/srv393_ap.pdst
cpu0_L2C IP-based stride prefetcher
cpu0_L1D next line prefetcher
cpu0_STLB using iTP with max lru@8
cpu0_STLB using iTP with instr@0 and data@2
Init sat counter with 3 bits (max:50).
cpu0_L1I next line prefetcher
Off-chip DRAM Size: 4 GiB Channels: 1 Width: 64-bit Data Rate: 3200 MT/s
Heartbeat CPU 0 instructions: 10000000 cycles: 2500160 heartbeat IPC: 3.99975 cumulative IPC: 3.99975 (Simulation time: 0 hr 0 min 38 sec) 
Heartbeat CPU 0 instructions: 20000003 cycles: 5000340 heartbeat IPC: 3.99972 cumulative IPC: 3.99973 (Simulation time: 0 hr 1 min 18 sec) 
Heartbeat CPU 0 instructions: 30000003 cycles: 7500365 heartbeat IPC: 3.99997 cumulative IPC: 3.99981 (Simulation time: 0 hr 1 min 59 sec) 
Heartbeat CPU 0 instructions: 40000000 cycles: 10000432 heartbeat IPC: 3.9999 cumulative IPC: 3.99983 (Simulation time: 0 hr 2 min 40 sec) 
Heartbeat CPU 0 instructions: 50000003 cycles: 12500552 heartbeat IPC: 3.99981 cumulative IPC: 3.99983 (Simulation time: 0 hr 3 min 21 sec) 
Warmup finished CPU 0 instructions: 50000003 cycles: 12500553 cumulative IPC: 3.99983 (Simulation time: 0 hr 3 min 21 sec) 

Warmup complete CPU 0 instructions: 50000003 cycles: 12500553 (Simulation time: 0 hr 3 min 21 sec) 

Heartbeat CPU 0 instructions: 60000003 cycles: 26357536 heartbeat IPC: 0.721658 cumulative IPC: 0.721658 (Simulation time: 0 hr 4 min 26 sec) 
Heartbeat CPU 0 instructions: 70000000 cycles: 41195134 heartbeat IPC: 0.673964 cumulative IPC: 0.696996 (Simulation time: 0 hr 5 min 31 sec) 
Heartbeat CPU 0 instructions: 80000000 cycles: 55353998 heartbeat IPC: 0.706272 cumulative IPC: 0.700061 (Simulation time: 0 hr 6 min 34 sec) 
Heartbeat CPU 0 instructions: 90000000 cycles: 70410343 heartbeat IPC: 0.664172 cumulative IPC: 0.69073 (Simulation time: 0 hr 7 min 39 sec) 
Heartbeat CPU 0 instructions: 100000000 cycles: 84526010 heartbeat IPC: 0.708433 cumulative IPC: 0.694199 (Simulation time: 0 hr 8 min 42 sec) 
*** Reached end of trace: /gpfs/projects/bsc18/MN4/bsc18/romol/ChampSim/traces/qualcomm_srv/srv393_ap.champsimtrace.xz
Heartbeat CPU 0 instructions: 110000000 cycles: 98672575 heartbeat IPC: 0.706886 cumulative IPC: 0.696282 (Simulation time: 0 hr 9 min 46 sec) 
Heartbeat CPU 0 instructions: 120000002 cycles: 113199073 heartbeat IPC: 0.688398 cumulative IPC: 0.695145 (Simulation time: 0 hr 10 min 50 sec) 
Heartbeat CPU 0 instructions: 130000000 cycles: 126803799 heartbeat IPC: 0.735039 cumulative IPC: 0.699893 (Simulation time: 0 hr 11 min 54 sec) 
Heartbeat CPU 0 instructions: 140000003 cycles: 140469710 heartbeat IPC: 0.731748 cumulative IPC: 0.703295 (Simulation time: 0 hr 12 min 57 sec) 
Heartbeat CPU 0 instructions: 150000001 cycles: 154223418 heartbeat IPC: 0.727077 cumulative IPC: 0.705603 (Simulation time: 0 hr 14 min 0 sec) 
Simulation finished CPU 0 instructions: 100000001 cycles: 141722867 cumulative IPC: 0.705603 (Simulation time: 0 hr 14 min 0 sec) 

Simulation complete CPU 0 instructions: 100000001 cycles: 141722867 (Simulation time: 0 hr 14 min 0 sec) 


ChampSim completed all CPUs

Saving instructions large page distribution to /home/bsc/bsc018186/scratch/itp_asplos25_AE/dump/srv393_ap.pdst...
Saving data large page distribution to /home/bsc/bsc018186/scratch/itp_asplos25_AE/dump/srv393_ap.pdst...
=== Simulation ===
CPU 0 runs /gpfs/projects/bsc18/MN4/bsc18/romol/ChampSim/traces/qualcomm_srv/srv393_ap.champsimtrace.xz

Region of Interest Statistics

CPU 0 cumulative IPC: 0.705603 instructions: 100000001 cycles: 141722867
CPU 0 Branch Prediction Accuracy: 83.2998% MPKI: 29.8571 Average ROB Occupancy at Mispredict: 12.405
Branch type MPKI
BRANCH_DIRECT_JUMP: 1.03687
BRANCH_INDIRECT: 15.3648
BRANCH_CONDITIONAL: 9.727
BRANCH_DIRECT_CALL: 1.86547
BRANCH_INDIRECT_CALL: 0.50973
BRANCH_RETURN: 1.35325

Instructions large pages: 0
Instructions small pages: 1028
Large page distribution for instructions: 0%

Data large pages: 0
Data small pages: 10369
Large page distribution for data: 0%

cpu0_L1I TOTAL       ACCESS:   35079592  HIT:   26832960  MISS:    8246632  iACCESS:   35079592  iHIT:   26832960  iMISS:    8246632  dACCESS:          0  dHIT:          0  dMISS:          0  itACCESS:          0  itHIT:          0  itMISS:          0  dtACCESS:          0  dtHIT:          0  dtMISS:          0
cpu0_L1I LOAD         ACCESS:   10285787  HIT:    7977558  MISS:    2308229  iACCESS:   10285787  iHIT:    7977558  iMISS:    2308229  dACCESS:          0  dHIT:          0  dMISS:          0  itACCESS:          0  itHIT:          0  itMISS:          0  dtACCESS:          0  dtHIT:          0  dtMISS:          0
cpu0_L1I RFO          ACCESS:          0  HIT:          0  MISS:          0  iACCESS:          0  iHIT:          0  iMISS:          0  dACCESS:          0  dHIT:          0  dMISS:          0  itACCESS:          0  itHIT:          0  itMISS:          0  dtACCESS:          0  dtHIT:          0  dtMISS:          0
cpu0_L1I PREFETCH     ACCESS:   24793805  HIT:   18855402  MISS:    5938403  iACCESS:   24793805  iHIT:   18855402  iMISS:    5938403  dACCESS:          0  dHIT:          0  dMISS:          0  itACCESS:          0  itHIT:          0  itMISS:          0  dtACCESS:          0  dtHIT:          0  dtMISS:          0
cpu0_L1I WRITE        ACCESS:          0  HIT:          0  MISS:          0  iACCESS:          0  iHIT:          0  iMISS:          0  dACCESS:          0  dHIT:          0  dMISS:          0  itACCESS:          0  itHIT:          0  itMISS:          0  dtACCESS:          0  dtHIT:          0  dtMISS:          0
cpu0_L1I TRANSLATION  ACCESS:          0  HIT:          0  MISS:          0  iACCESS:          0  iHIT:          0  iMISS:          0  dACCESS:          0  dHIT:          0  dMISS:          0  itACCESS:          0  itHIT:          0  itMISS:          0  dtACCESS:          0  dtHIT:          0  dtMISS:          0
cpu0_L1I PREFETCH  REQUESTED:   27160525  ISSUED:   27159149  CROSSED:          0  USEFUL:    1891615  USELESS:     623799
cpu0_L1I AVERAGE iMISS LATENCY: 13.8251 cycles
cpu0_L1I AVERAGE dMISS LATENCY: 0 cycles
cpu0_L1I AVERAGE itMISS LATENCY: 0 cycles
cpu0_L1I AVERAGE dtMISS LATENCY: 0 cycles
cpu0_L1I PAGE CROSSINGS (TLB HIT):         0 
cpu0_L1I PAGE CROSSINGS (TLB MISS):         0 
cpu0_L1I AVERAGE MISS LATENCY: 13.8251 cycles
cpu0_ITLB TOTAL       ACCESS:   29053527  HIT:   27106026  MISS:    1947501  iACCESS:   29053527  iHIT:   27106026  iMISS:    1947501  dACCESS:          0  dHIT:          0  dMISS:          0  itACCESS:          0  itHIT:          0  itMISS:          0  dtACCESS:          0  dtHIT:          0  dtMISS:          0
cpu0_ITLB LOAD         ACCESS:   29053527  HIT:   27106026  MISS:    1947501  iACCESS:   29053527  iHIT:   27106026  iMISS:    1947501  dACCESS:          0  dHIT:          0  dMISS:          0  itACCESS:          0  itHIT:          0  itMISS:          0  dtACCESS:          0  dtHIT:          0  dtMISS:          0
cpu0_ITLB RFO          ACCESS:          0  HIT:          0  MISS:          0  iACCESS:          0  iHIT:          0  iMISS:          0  dACCESS:          0  dHIT:          0  dMISS:          0  itACCESS:          0  itHIT:          0  itMISS:          0  dtACCESS:          0  dtHIT:          0  dtMISS:          0
cpu0_ITLB PREFETCH     ACCESS:          0  HIT:          0  MISS:          0  iACCESS:          0  iHIT:          0  iMISS:          0  dACCESS:          0  dHIT:          0  dMISS:          0  itACCESS:          0  itHIT:          0  itMISS:          0  dtACCESS:          0  dtHIT:          0  dtMISS:          0
cpu0_ITLB WRITE        ACCESS:          0  HIT:          0  MISS:          0  iACCESS:          0  iHIT:          0  iMISS:          0  dACCESS:          0  dHIT:          0  dMISS:          0  itACCESS:          0  itHIT:          0  itMISS:          0  dtACCESS:          0  dtHIT:          0  dtMISS:          0
cpu0_ITLB TRANSLATION  ACCESS:          0  HIT:          0  MISS:          0  iACCESS:          0  iHIT:          0  iMISS:          0  dACCESS:          0  dHIT:          0  dMISS:          0  itACCESS:          0  itHIT:          0  itMISS:          0  dtACCESS:          0  dtHIT:          0  dtMISS:          0
cpu0_ITLB PREFETCH  REQUESTED:          0  ISSUED:          0  CROSSED:          0  USEFUL:     320393  USELESS:      65838
cpu0_ITLB AVERAGE iMISS LATENCY: 2.01934 cycles
cpu0_ITLB AVERAGE dMISS LATENCY: 0 cycles
cpu0_ITLB AVERAGE itMISS LATENCY: 0 cycles
cpu0_ITLB AVERAGE dtMISS LATENCY: 0 cycles
cpu0_ITLB PAGE CROSSINGS (TLB HIT):         0 
cpu0_ITLB PAGE CROSSINGS (TLB MISS):         0 
cpu0_ITLB AVERAGE MISS LATENCY: 2.01934 cycles
cpu0_DTLB TOTAL       ACCESS:   27707788  HIT:   25884578  MISS:    1823210  iACCESS:          0  iHIT:          0  iMISS:          0  dACCESS:   27707788  dHIT:   25884578  dMISS:    1823210  itACCESS:          0  itHIT:          0  itMISS:          0  dtACCESS:          0  dtHIT:          0  dtMISS:          0
cpu0_DTLB LOAD         ACCESS:   27707788  HIT:   25884578  MISS:    1823210  iACCESS:          0  iHIT:          0  iMISS:          0  dACCESS:   27707788  dHIT:   25884578  dMISS:    1823210  itACCESS:          0  itHIT:          0  itMISS:          0  dtACCESS:          0  dtHIT:          0  dtMISS:          0
cpu0_DTLB RFO          ACCESS:          0  HIT:          0  MISS:          0  iACCESS:          0  iHIT:          0  iMISS:          0  dACCESS:          0  dHIT:          0  dMISS:          0  itACCESS:          0  itHIT:          0  itMISS:          0  dtACCESS:          0  dtHIT:          0  dtMISS:          0
cpu0_DTLB PREFETCH     ACCESS:          0  HIT:          0  MISS:          0  iACCESS:          0  iHIT:          0  iMISS:          0  dACCESS:          0  dHIT:          0  dMISS:          0  itACCESS:          0  itHIT:          0  itMISS:          0  dtACCESS:          0  dtHIT:          0  dtMISS:          0
cpu0_DTLB WRITE        ACCESS:          0  HIT:          0  MISS:          0  iACCESS:          0  iHIT:          0  iMISS:          0  dACCESS:          0  dHIT:          0  dMISS:          0  itACCESS:          0  itHIT:          0  itMISS:          0  dtACCESS:          0  dtHIT:          0  dtMISS:          0
cpu0_DTLB TRANSLATION  ACCESS:          0  HIT:          0  MISS:          0  iACCESS:          0  iHIT:          0  iMISS:          0  dACCESS:          0  dHIT:          0  dMISS:          0  itACCESS:          0  itHIT:          0  itMISS:          0  dtACCESS:          0  dtHIT:          0  dtMISS:          0
cpu0_DTLB PREFETCH  REQUESTED:          0  ISSUED:          0  CROSSED:          0  USEFUL:          0  USELESS:          0
cpu0_DTLB AVERAGE iMISS LATENCY: 0 cycles
cpu0_DTLB AVERAGE dMISS LATENCY: 12.169 cycles
cpu0_DTLB AVERAGE itMISS LATENCY: 0 cycles
cpu0_DTLB AVERAGE dtMISS LATENCY: 0 cycles
cpu0_DTLB PAGE CROSSINGS (TLB HIT):         0 
cpu0_DTLB PAGE CROSSINGS (TLB MISS):         0 
cpu0_DTLB AVERAGE MISS LATENCY: 12.169 cycles
cpu0_STLB TOTAL       ACCESS:    1498809  HIT:    1349686  MISS:     149123  iACCESS:     386241  iHIT:     376932  iMISS:       9309  dACCESS:    1112568  dHIT:     972754  dMISS:     139814  itACCESS:          0  itHIT:          0  itMISS:          0  dtACCESS:          0  dtHIT:          0  dtMISS:          0
cpu0_STLB LOAD         ACCESS:    1498809  HIT:    1349686  MISS:     149123  iACCESS:     386241  iHIT:     376932  iMISS:       9309  dACCESS:    1112568  dHIT:     972754  dMISS:     139814  itACCESS:          0  itHIT:          0  itMISS:          0  dtACCESS:          0  dtHIT:          0  dtMISS:          0
cpu0_STLB RFO          ACCESS:          0  HIT:          0  MISS:          0  iACCESS:          0  iHIT:          0  iMISS:          0  dACCESS:          0  dHIT:          0  dMISS:          0  itACCESS:          0  itHIT:          0  itMISS:          0  dtACCESS:          0  dtHIT:          0  dtMISS:          0
cpu0_STLB PREFETCH     ACCESS:          0  HIT:          0  MISS:          0  iACCESS:          0  iHIT:          0  iMISS:          0  dACCESS:          0  dHIT:          0  dMISS:          0  itACCESS:          0  itHIT:          0  itMISS:          0  dtACCESS:          0  dtHIT:          0  dtMISS:          0
cpu0_STLB WRITE        ACCESS:          0  HIT:          0  MISS:          0  iACCESS:          0  iHIT:          0  iMISS:          0  dACCESS:          0  dHIT:          0  dMISS:          0  itACCESS:          0  itHIT:          0  itMISS:          0  dtACCESS:          0  dtHIT:          0  dtMISS:          0
cpu0_STLB TRANSLATION  ACCESS:          0  HIT:          0  MISS:          0  iACCESS:          0  iHIT:          0  iMISS:          0  dACCESS:          0  dHIT:          0  dMISS:          0  itACCESS:          0  itHIT:          0  itMISS:          0  dtACCESS:          0  dtHIT:          0  dtMISS:          0
cpu0_STLB PREFETCH  REQUESTED:          0  ISSUED:          0  CROSSED:          0  USEFUL:          0  USELESS:          0
cpu0_STLB AVERAGE iMISS LATENCY: 6.26662 cycles
cpu0_STLB AVERAGE dMISS LATENCY: 89.0747 cycles
cpu0_STLB AVERAGE itMISS LATENCY: 0 cycles
cpu0_STLB AVERAGE dtMISS LATENCY: 0 cycles
cpu0_STLB PAGE CROSSINGS (TLB HIT):         0 
cpu0_STLB PAGE CROSSINGS (TLB MISS):         0 
cpu0_STLB AVERAGE MISS LATENCY: 95.3413 cycles
cpu0_L1D TOTAL       ACCESS:   41482528  HIT:   38004508  MISS:    3478020  iACCESS:          0  iHIT:          0  iMISS:          0  dACCESS:   41260162  dHIT:   37990098  dMISS:    3270064  itACCESS:      11533  itHIT:       1113  itMISS:      10420  dtACCESS:     210833  dtHIT:      13297  dtMISS:     197536
cpu0_L1D LOAD         ACCESS:   18962463  HIT:   17476877  MISS:    1485586  iACCESS:          0  iHIT:          0  iMISS:          0  dACCESS:   18962463  dHIT:   17476877  dMISS:    1485586  itACCESS:          0  itHIT:          0  itMISS:          0  dtACCESS:          0  dtHIT:          0  dtMISS:          0
cpu0_L1D RFO          ACCESS:          0  HIT:          0  MISS:          0  iACCESS:          0  iHIT:          0  iMISS:          0  dACCESS:          0  dHIT:          0  dMISS:          0  itACCESS:          0  itHIT:          0  itMISS:          0  dtACCESS:          0  dtHIT:          0  dtMISS:          0
cpu0_L1D PREFETCH     ACCESS:   12131830  HIT:   10768871  MISS:    1362959  iACCESS:          0  iHIT:          0  iMISS:          0  dACCESS:   12131830  dHIT:   10768871  dMISS:    1362959  itACCESS:          0  itHIT:          0  itMISS:          0  dtACCESS:          0  dtHIT:          0  dtMISS:          0
cpu0_L1D WRITE        ACCESS:   10165869  HIT:    9744350  MISS:     421519  iACCESS:          0  iHIT:          0  iMISS:          0  dACCESS:   10165869  dHIT:    9744350  dMISS:     421519  itACCESS:          0  itHIT:          0  itMISS:          0  dtACCESS:          0  dtHIT:          0  dtMISS:          0
cpu0_L1D TRANSLATION  ACCESS:     222366  HIT:      14410  MISS:     207956  iACCESS:          0  iHIT:          0  iMISS:          0  dACCESS:          0  dHIT:          0  dMISS:          0  itACCESS:      11533  itHIT:       1113  itMISS:      10420  dtACCESS:     210833  dtHIT:      13297  dtMISS:     197536
cpu0_L1D PREFETCH  REQUESTED:   18962463  ISSUED:   16903812  CROSSED:          0  USEFUL:     303639  USELESS:     694081
cpu0_L1D AVERAGE iMISS LATENCY: 0 cycles
cpu0_L1D AVERAGE dMISS LATENCY: 34.2622 cycles
cpu0_L1D AVERAGE itMISS LATENCY: 0.23831 cycles
cpu0_L1D AVERAGE dtMISS LATENCY: 3.00195 cycles
cpu0_L1D PAGE CROSSINGS (TLB HIT):         0 
cpu0_L1D PAGE CROSSINGS (TLB MISS):         0 
cpu0_L1D AVERAGE MISS LATENCY: 37.5024 cycles
cpu0_L2C TOTAL       ACCESS:    6883865  HIT:    1614269  MISS:    5269596  iACCESS:    3258094  iHIT:     819068  iMISS:    2439026  dACCESS:    3429524  dHIT:     690012  dMISS:    2739512  itACCESS:      10420  itHIT:       4808  itMISS:       5612  dtACCESS:     185827  dtHIT:     100381  dtMISS:      85446
cpu0_L2C LOAD         ACCESS:    1696567  HIT:     278948  MISS:    1417619  iACCESS:     775792  iHIT:     134133  iMISS:     641659  dACCESS:     920775  dHIT:     144815  dMISS:     775960  itACCESS:          0  itHIT:          0  itMISS:          0  dtACCESS:          0  dtHIT:          0  dtMISS:          0
cpu0_L2C RFO          ACCESS:     156030  HIT:      53603  MISS:     102427  iACCESS:          0  iHIT:          0  iMISS:          0  dACCESS:     156030  dHIT:      53603  dMISS:     102427  itACCESS:          0  itHIT:          0  itMISS:          0  dtACCESS:          0  dtHIT:          0  dtMISS:          0
cpu0_L2C PREFETCH     ACCESS:    4554139  HIT:    1041368  MISS:    3512771  iACCESS:    2482302  iHIT:     684935  iMISS:    1797367  dACCESS:    2071837  dHIT:     356433  dMISS:    1715404  itACCESS:          0  itHIT:          0  itMISS:          0  dtACCESS:          0  dtHIT:          0  dtMISS:          0
cpu0_L2C WRITE        ACCESS:     280882  HIT:     135161  MISS:     145721  iACCESS:          0  iHIT:          0  iMISS:          0  dACCESS:     280882  dHIT:     135161  dMISS:     145721  itACCESS:          0  itHIT:          0  itMISS:          0  dtACCESS:          0  dtHIT:          0  dtMISS:          0
cpu0_L2C TRANSLATION  ACCESS:     196247  HIT:     105189  MISS:      91058  iACCESS:          0  iHIT:          0  iMISS:          0  dACCESS:          0  dHIT:          0  dMISS:          0  itACCESS:      10420  itHIT:       4808  itMISS:       5612  dtACCESS:     185827  dtHIT:     100381  dtMISS:      85446
cpu0_L2C PREFETCH  REQUESTED:    1321166  ISSUED:    1321166  CROSSED:          0  USEFUL:     386656  USELESS:     367260
cpu0_L2C AVERAGE iMISS LATENCY: 15.9294 cycles
cpu0_L2C AVERAGE dMISS LATENCY: 26.0279 cycles
cpu0_L2C AVERAGE itMISS LATENCY: 0.138366 cycles
cpu0_L2C AVERAGE dtMISS LATENCY: 1.64591 cycles
cpu0_L2C PAGE CROSSINGS (TLB HIT):         0 
cpu0_L2C PAGE CROSSINGS (TLB MISS):         0 
cpu0_L2C AVERAGE MISS LATENCY: 43.7416 cycles
LLC TOTAL       ACCESS:    5149798  HIT:    4287304  MISS:     862494  iACCESS:    2385224  iHIT:    2122899  iMISS:     262325  dACCESS:    2673516  dHIT:    2116489  dMISS:     557027  itACCESS:       5612  itHIT:       2032  itMISS:       3580  dtACCESS:      85446  dtHIT:      45884  dtMISS:      39562
LLC LOAD         ACCESS:    1415985  HIT:    1222998  MISS:     192987  iACCESS:     640339  iHIT:     584747  iMISS:      55592  dACCESS:     775646  dHIT:     638251  dMISS:     137395  itACCESS:          0  itHIT:          0  itMISS:          0  dtACCESS:          0  dtHIT:          0  dtMISS:          0
LLC RFO          ACCESS:     102413  HIT:      64555  MISS:      37858  iACCESS:          0  iHIT:          0  iMISS:          0  dACCESS:     102413  dHIT:      64555  dMISS:      37858  itACCESS:          0  itHIT:          0  itMISS:          0  dtACCESS:          0  dtHIT:          0  dtMISS:          0
LLC PREFETCH     ACCESS:    3406006  HIT:    2826679  MISS:     579327  iACCESS:    1744885  iHIT:    1538152  iMISS:     206733  dACCESS:    1661121  dHIT:    1288527  dMISS:     372594  itACCESS:          0  itHIT:          0  itMISS:          0  dtACCESS:          0  dtHIT:          0  dtMISS:          0
LLC WRITE        ACCESS:     134336  HIT:     125156  MISS:       9180  iACCESS:          0  iHIT:          0  iMISS:          0  dACCESS:     134336  dHIT:     125156  dMISS:       9180  itACCESS:          0  itHIT:          0  itMISS:          0  dtACCESS:          0  dtHIT:          0  dtMISS:          0
LLC TRANSLATION  ACCESS:      91058  HIT:      47916  MISS:      43142  iACCESS:          0  iHIT:          0  iMISS:          0  dACCESS:          0  dHIT:          0  dMISS:          0  itACCESS:       5612  itHIT:       2032  itMISS:       3580  dtACCESS:      85446  dtHIT:      45884  dtMISS:      39562
LLC PREFETCH  REQUESTED:          0  ISSUED:          0  CROSSED:          0  USEFUL:          0  USELESS:          0
LLC AVERAGE iMISS LATENCY: 43.9633 cycles
LLC AVERAGE dMISS LATENCY: 102.343 cycles
LLC AVERAGE itMISS LATENCY: 0.717848 cycles
LLC AVERAGE dtMISS LATENCY: 8.12863 cycles
LLC PAGE CROSSINGS (TLB HIT):         0 
LLC PAGE CROSSINGS (TLB MISS):         0 
LLC AVERAGE MISS LATENCY: 155.152 cycles

PageTableWalker TOTAL       ACCESS:      73605  
PageTableWalker AVERAGE LATENCY: 5.04207 cycles
PageTableWalker TOTAL LATENCY: 371121 cycles

DRAM Statistics
Channel 0
 RQ ROW_BUFFER_HIT:     254501
  ROW_BUFFER_MISS:     598670
 AVG DBUS CONGESTED CYCLE:    3.62703
 WQ ROW_BUFFER_HIT:      16961
  ROW_BUFFER_MISS:      21675  FULL:          0

