last_page:0x200000000000000
VMEM_RES_CAP:0x100000
PAGE_SIZE:4096
LOG2_PAGE_SIZE:12
LOG2_PAGE_TABLE_SIZE:9
page_table_levels:5
WARNING: physical memory size is smaller than virtual memory size
FDiP enabled with aggresivity 16

*** ChampSim Multicore Out-of-Order Simulator ***

Warmup Instructions: 50000000
Simulation Instructions: 100000000
Number of CPUs: 1
Small page size: 4096
Large page size: 2097152

CPU 0 Bimodal branch predictor
Basic BTB sets: 1024 ways: 8 indirect buffer size: 4096 RAS size: 64
Instruction page size distrubution: 0
Loading instruction page size distribution from /home/bsc/bsc018186/scratch/itp_asplos25_AE/dump/srv358_ap.pdst
Data page size distrubution: 0
Loading data page size distribution from /home/bsc/bsc018186/scratch/itp_asplos25_AE/dump/srv358_ap.pdst
cpu0_L2C IP-based stride prefetcher
cpu0_L1D next line prefetcher
cpu0_L1I next line prefetcher
Off-chip DRAM Size: 4 GiB Channels: 1 Width: 64-bit Data Rate: 3200 MT/s
Heartbeat CPU 0 instructions: 10000003 cycles: 2500208 heartbeat IPC: 3.99967 cumulative IPC: 3.99967 (Simulation time: 0 hr 0 min 34 sec) 
Heartbeat CPU 0 instructions: 20000002 cycles: 5000229 heartbeat IPC: 3.99997 cumulative IPC: 3.99982 (Simulation time: 0 hr 1 min 11 sec) 
Heartbeat CPU 0 instructions: 30000002 cycles: 7500276 heartbeat IPC: 3.99993 cumulative IPC: 3.99986 (Simulation time: 0 hr 1 min 48 sec) 
Heartbeat CPU 0 instructions: 40000000 cycles: 10000441 heartbeat IPC: 3.99974 cumulative IPC: 3.99983 (Simulation time: 0 hr 2 min 25 sec) 
Heartbeat CPU 0 instructions: 50000000 cycles: 12500497 heartbeat IPC: 3.99992 cumulative IPC: 3.99985 (Simulation time: 0 hr 3 min 2 sec) 
Warmup finished CPU 0 instructions: 50000000 cycles: 12500498 cumulative IPC: 3.99985 (Simulation time: 0 hr 3 min 2 sec) 

Warmup complete CPU 0 instructions: 50000000 cycles: 12500498 (Simulation time: 0 hr 3 min 2 sec) 

Heartbeat CPU 0 instructions: 60000003 cycles: 27935571 heartbeat IPC: 0.647876 cumulative IPC: 0.647876 (Simulation time: 0 hr 4 min 2 sec) 
Heartbeat CPU 0 instructions: 70000000 cycles: 42649541 heartbeat IPC: 0.679627 cumulative IPC: 0.663371 (Simulation time: 0 hr 5 min 1 sec) 
Heartbeat CPU 0 instructions: 80000000 cycles: 57983607 heartbeat IPC: 0.652143 cumulative IPC: 0.659586 (Simulation time: 0 hr 6 min 1 sec) 
Heartbeat CPU 0 instructions: 90000000 cycles: 72287522 heartbeat IPC: 0.69911 cumulative IPC: 0.669042 (Simulation time: 0 hr 7 min 0 sec) 
Heartbeat CPU 0 instructions: 100000000 cycles: 88364218 heartbeat IPC: 0.622019 cumulative IPC: 0.659077 (Simulation time: 0 hr 8 min 1 sec) 
*** Reached end of trace: /gpfs/projects/bsc18/MN4/bsc18/romol/ChampSim/traces/qualcomm_srv/srv358_ap.champsimtrace.xz
Heartbeat CPU 0 instructions: 110000004 cycles: 104118961 heartbeat IPC: 0.63473 cumulative IPC: 0.65489 (Simulation time: 0 hr 9 min 2 sec) 
Heartbeat CPU 0 instructions: 120000002 cycles: 119649616 heartbeat IPC: 0.643888 cumulative IPC: 0.653296 (Simulation time: 0 hr 10 min 2 sec) 
Heartbeat CPU 0 instructions: 130000001 cycles: 134703768 heartbeat IPC: 0.664269 cumulative IPC: 0.654647 (Simulation time: 0 hr 11 min 2 sec) 
Heartbeat CPU 0 instructions: 140000003 cycles: 150524511 heartbeat IPC: 0.632082 cumulative IPC: 0.652061 (Simulation time: 0 hr 12 min 3 sec) 
Heartbeat CPU 0 instructions: 150000002 cycles: 166205825 heartbeat IPC: 0.637702 cumulative IPC: 0.650596 (Simulation time: 0 hr 13 min 4 sec) 
Simulation finished CPU 0 instructions: 100000002 cycles: 153705328 cumulative IPC: 0.650596 (Simulation time: 0 hr 13 min 4 sec) 

Simulation complete CPU 0 instructions: 100000002 cycles: 153705328 (Simulation time: 0 hr 13 min 4 sec) 


ChampSim completed all CPUs

Saving instructions large page distribution to /home/bsc/bsc018186/scratch/itp_asplos25_AE/dump/srv358_ap.pdst...
Saving data large page distribution to /home/bsc/bsc018186/scratch/itp_asplos25_AE/dump/srv358_ap.pdst...
=== Simulation ===
CPU 0 runs /gpfs/projects/bsc18/MN4/bsc18/romol/ChampSim/traces/qualcomm_srv/srv358_ap.champsimtrace.xz

Region of Interest Statistics

CPU 0 cumulative IPC: 0.650596 instructions: 100000002 cycles: 153705328
CPU 0 Branch Prediction Accuracy: 82.9127% MPKI: 30.5285 Average ROB Occupancy at Mispredict: 12.7264
Branch type MPKI
BRANCH_DIRECT_JUMP: 1.0344
BRANCH_INDIRECT: 15.5752
BRANCH_CONDITIONAL: 10.1891
BRANCH_DIRECT_CALL: 1.87359
BRANCH_INDIRECT_CALL: 0.51604
BRANCH_RETURN: 1.34027

Instructions large pages: 0
Instructions small pages: 1010
Large page distribution for instructions: 0%

Data large pages: 0
Data small pages: 9666
Large page distribution for data: 0%

cpu0_L1I TOTAL       ACCESS:   34996972  HIT:   27166971  MISS:    7830001  iACCESS:   34996972  iHIT:   27166971  iMISS:    7830001  dACCESS:          0  dHIT:          0  dMISS:          0  itACCESS:          0  itHIT:          0  itMISS:          0  dtACCESS:          0  dtHIT:          0  dtMISS:          0
cpu0_L1I LOAD         ACCESS:   10275372  HIT:    8075882  MISS:    2199490  iACCESS:   10275372  iHIT:    8075882  iMISS:    2199490  dACCESS:          0  dHIT:          0  dMISS:          0  itACCESS:          0  itHIT:          0  itMISS:          0  dtACCESS:          0  dtHIT:          0  dtMISS:          0
cpu0_L1I RFO          ACCESS:          0  HIT:          0  MISS:          0  iACCESS:          0  iHIT:          0  iMISS:          0  dACCESS:          0  dHIT:          0  dMISS:          0  itACCESS:          0  itHIT:          0  itMISS:          0  dtACCESS:          0  dtHIT:          0  dtMISS:          0
cpu0_L1I PREFETCH     ACCESS:   24721600  HIT:   19091089  MISS:    5630511  iACCESS:   24721600  iHIT:   19091089  iMISS:    5630511  dACCESS:          0  dHIT:          0  dMISS:          0  itACCESS:          0  itHIT:          0  itMISS:          0  dtACCESS:          0  dtHIT:          0  dtMISS:          0
cpu0_L1I WRITE        ACCESS:          0  HIT:          0  MISS:          0  iACCESS:          0  iHIT:          0  iMISS:          0  dACCESS:          0  dHIT:          0  dMISS:          0  itACCESS:          0  itHIT:          0  itMISS:          0  dtACCESS:          0  dtHIT:          0  dtMISS:          0
cpu0_L1I TRANSLATION  ACCESS:          0  HIT:          0  MISS:          0  iACCESS:          0  iHIT:          0  iMISS:          0  dACCESS:          0  dHIT:          0  dMISS:          0  itACCESS:          0  itHIT:          0  itMISS:          0  dtACCESS:          0  dtHIT:          0  dtMISS:          0
cpu0_L1I PREFETCH  REQUESTED:   27268219  ISSUED:   27268219  CROSSED:          0  USEFUL:    1928029  USELESS:     624954
cpu0_L1I AVERAGE iMISS LATENCY: 12.6217 cycles
cpu0_L1I AVERAGE dMISS LATENCY: 0 cycles
cpu0_L1I AVERAGE itMISS LATENCY: 0 cycles
cpu0_L1I AVERAGE dtMISS LATENCY: 0 cycles
cpu0_L1I PAGE CROSSINGS (TLB HIT):         0 
cpu0_L1I PAGE CROSSINGS (TLB MISS):         0 
cpu0_L1I AVERAGE MISS LATENCY: 12.6217 cycles
cpu0_ITLB TOTAL       ACCESS:   29222155  HIT:   27276218  MISS:    1945937  iACCESS:   29222155  iHIT:   27276218  iMISS:    1945937  dACCESS:          0  dHIT:          0  dMISS:          0  itACCESS:          0  itHIT:          0  itMISS:          0  dtACCESS:          0  dtHIT:          0  dtMISS:          0
cpu0_ITLB LOAD         ACCESS:   29222155  HIT:   27276218  MISS:    1945937  iACCESS:   29222155  iHIT:   27276218  iMISS:    1945937  dACCESS:          0  dHIT:          0  dMISS:          0  itACCESS:          0  itHIT:          0  itMISS:          0  dtACCESS:          0  dtHIT:          0  dtMISS:          0
cpu0_ITLB RFO          ACCESS:          0  HIT:          0  MISS:          0  iACCESS:          0  iHIT:          0  iMISS:          0  dACCESS:          0  dHIT:          0  dMISS:          0  itACCESS:          0  itHIT:          0  itMISS:          0  dtACCESS:          0  dtHIT:          0  dtMISS:          0
cpu0_ITLB PREFETCH     ACCESS:          0  HIT:          0  MISS:          0  iACCESS:          0  iHIT:          0  iMISS:          0  dACCESS:          0  dHIT:          0  dMISS:          0  itACCESS:          0  itHIT:          0  itMISS:          0  dtACCESS:          0  dtHIT:          0  dtMISS:          0
cpu0_ITLB WRITE        ACCESS:          0  HIT:          0  MISS:          0  iACCESS:          0  iHIT:          0  iMISS:          0  dACCESS:          0  dHIT:          0  dMISS:          0  itACCESS:          0  itHIT:          0  itMISS:          0  dtACCESS:          0  dtHIT:          0  dtMISS:          0
cpu0_ITLB TRANSLATION  ACCESS:          0  HIT:          0  MISS:          0  iACCESS:          0  iHIT:          0  iMISS:          0  dACCESS:          0  dHIT:          0  dMISS:          0  itACCESS:          0  itHIT:          0  itMISS:          0  dtACCESS:          0  dtHIT:          0  dtMISS:          0
cpu0_ITLB PREFETCH  REQUESTED:          0  ISSUED:          0  CROSSED:          0  USEFUL:     315284  USELESS:      64698
cpu0_ITLB AVERAGE iMISS LATENCY: 5.15357 cycles
cpu0_ITLB AVERAGE dMISS LATENCY: 0 cycles
cpu0_ITLB AVERAGE itMISS LATENCY: 0 cycles
cpu0_ITLB AVERAGE dtMISS LATENCY: 0 cycles
cpu0_ITLB PAGE CROSSINGS (TLB HIT):         0 
cpu0_ITLB PAGE CROSSINGS (TLB MISS):         0 
cpu0_ITLB AVERAGE MISS LATENCY: 5.15357 cycles
cpu0_DTLB TOTAL       ACCESS:   27724023  HIT:   25628301  MISS:    2095722  iACCESS:          0  iHIT:          0  iMISS:          0  dACCESS:   27724023  dHIT:   25628301  dMISS:    2095722  itACCESS:          0  itHIT:          0  itMISS:          0  dtACCESS:          0  dtHIT:          0  dtMISS:          0
cpu0_DTLB LOAD         ACCESS:   27724023  HIT:   25628301  MISS:    2095722  iACCESS:          0  iHIT:          0  iMISS:          0  dACCESS:   27724023  dHIT:   25628301  dMISS:    2095722  itACCESS:          0  itHIT:          0  itMISS:          0  dtACCESS:          0  dtHIT:          0  dtMISS:          0
cpu0_DTLB RFO          ACCESS:          0  HIT:          0  MISS:          0  iACCESS:          0  iHIT:          0  iMISS:          0  dACCESS:          0  dHIT:          0  dMISS:          0  itACCESS:          0  itHIT:          0  itMISS:          0  dtACCESS:          0  dtHIT:          0  dtMISS:          0
cpu0_DTLB PREFETCH     ACCESS:          0  HIT:          0  MISS:          0  iACCESS:          0  iHIT:          0  iMISS:          0  dACCESS:          0  dHIT:          0  dMISS:          0  itACCESS:          0  itHIT:          0  itMISS:          0  dtACCESS:          0  dtHIT:          0  dtMISS:          0
cpu0_DTLB WRITE        ACCESS:          0  HIT:          0  MISS:          0  iACCESS:          0  iHIT:          0  iMISS:          0  dACCESS:          0  dHIT:          0  dMISS:          0  itACCESS:          0  itHIT:          0  itMISS:          0  dtACCESS:          0  dtHIT:          0  dtMISS:          0
cpu0_DTLB TRANSLATION  ACCESS:          0  HIT:          0  MISS:          0  iACCESS:          0  iHIT:          0  iMISS:          0  dACCESS:          0  dHIT:          0  dMISS:          0  itACCESS:          0  itHIT:          0  itMISS:          0  dtACCESS:          0  dtHIT:          0  dtMISS:          0
cpu0_DTLB PREFETCH  REQUESTED:          0  ISSUED:          0  CROSSED:          0  USEFUL:          0  USELESS:          0
cpu0_DTLB AVERAGE iMISS LATENCY: 0 cycles
cpu0_DTLB AVERAGE dMISS LATENCY: 14.7169 cycles
cpu0_DTLB AVERAGE itMISS LATENCY: 0 cycles
cpu0_DTLB AVERAGE dtMISS LATENCY: 0 cycles
cpu0_DTLB PAGE CROSSINGS (TLB HIT):         0 
cpu0_DTLB PAGE CROSSINGS (TLB MISS):         0 
cpu0_DTLB AVERAGE MISS LATENCY: 14.7169 cycles
cpu0_STLB TOTAL       ACCESS:    1616749  HIT:    1449364  MISS:     167385  iACCESS:     379983  iHIT:     321714  iMISS:      58269  dACCESS:    1236766  dHIT:    1127650  dMISS:     109116  itACCESS:          0  itHIT:          0  itMISS:          0  dtACCESS:          0  dtHIT:          0  dtMISS:          0
cpu0_STLB LOAD         ACCESS:    1616749  HIT:    1449364  MISS:     167385  iACCESS:     379983  iHIT:     321714  iMISS:      58269  dACCESS:    1236766  dHIT:    1127650  dMISS:     109116  itACCESS:          0  itHIT:          0  itMISS:          0  dtACCESS:          0  dtHIT:          0  dtMISS:          0
cpu0_STLB RFO          ACCESS:          0  HIT:          0  MISS:          0  iACCESS:          0  iHIT:          0  iMISS:          0  dACCESS:          0  dHIT:          0  dMISS:          0  itACCESS:          0  itHIT:          0  itMISS:          0  dtACCESS:          0  dtHIT:          0  dtMISS:          0
cpu0_STLB PREFETCH     ACCESS:          0  HIT:          0  MISS:          0  iACCESS:          0  iHIT:          0  iMISS:          0  dACCESS:          0  dHIT:          0  dMISS:          0  itACCESS:          0  itHIT:          0  itMISS:          0  dtACCESS:          0  dtHIT:          0  dtMISS:          0
cpu0_STLB WRITE        ACCESS:          0  HIT:          0  MISS:          0  iACCESS:          0  iHIT:          0  iMISS:          0  dACCESS:          0  dHIT:          0  dMISS:          0  itACCESS:          0  itHIT:          0  itMISS:          0  dtACCESS:          0  dtHIT:          0  dtMISS:          0
cpu0_STLB TRANSLATION  ACCESS:          0  HIT:          0  MISS:          0  iACCESS:          0  iHIT:          0  iMISS:          0  dACCESS:          0  dHIT:          0  dMISS:          0  itACCESS:          0  itHIT:          0  itMISS:          0  dtACCESS:          0  dtHIT:          0  dtMISS:          0
cpu0_STLB PREFETCH  REQUESTED:          0  ISSUED:          0  CROSSED:          0  USEFUL:          0  USELESS:          0
cpu0_STLB AVERAGE iMISS LATENCY: 41.9768 cycles
cpu0_STLB AVERAGE dMISS LATENCY: 125.358 cycles
cpu0_STLB AVERAGE itMISS LATENCY: 0 cycles
cpu0_STLB AVERAGE dtMISS LATENCY: 0 cycles
cpu0_STLB PAGE CROSSINGS (TLB HIT):         0 
cpu0_STLB PAGE CROSSINGS (TLB MISS):         0 
cpu0_STLB AVERAGE MISS LATENCY: 167.335 cycles
cpu0_L1D TOTAL       ACCESS:   41521972  HIT:   38050611  MISS:    3471361  iACCESS:          0  iHIT:          0  iMISS:          0  dACCESS:   41293974  dHIT:   38030922  dMISS:    3263052  itACCESS:      63294  itHIT:       9080  itMISS:      54214  dtACCESS:     164704  dtHIT:      10609  dtMISS:     154095
cpu0_L1D LOAD         ACCESS:   18939689  HIT:   17455737  MISS:    1483952  iACCESS:          0  iHIT:          0  iMISS:          0  dACCESS:   18939689  dHIT:   17455737  dMISS:    1483952  itACCESS:          0  itHIT:          0  itMISS:          0  dtACCESS:          0  dtHIT:          0  dtMISS:          0
cpu0_L1D RFO          ACCESS:          0  HIT:          0  MISS:          0  iACCESS:          0  iHIT:          0  iMISS:          0  dACCESS:          0  dHIT:          0  dMISS:          0  itACCESS:          0  itHIT:          0  itMISS:          0  dtACCESS:          0  dtHIT:          0  dtMISS:          0
cpu0_L1D PREFETCH     ACCESS:   12183336  HIT:   10837647  MISS:    1345689  iACCESS:          0  iHIT:          0  iMISS:          0  dACCESS:   12183336  dHIT:   10837647  dMISS:    1345689  itACCESS:          0  itHIT:          0  itMISS:          0  dtACCESS:          0  dtHIT:          0  dtMISS:          0
cpu0_L1D WRITE        ACCESS:   10170949  HIT:    9737538  MISS:     433411  iACCESS:          0  iHIT:          0  iMISS:          0  dACCESS:   10170949  dHIT:    9737538  dMISS:     433411  itACCESS:          0  itHIT:          0  itMISS:          0  dtACCESS:          0  dtHIT:          0  dtMISS:          0
cpu0_L1D TRANSLATION  ACCESS:     227998  HIT:      19689  MISS:     208309  iACCESS:          0  iHIT:          0  iMISS:          0  dACCESS:          0  dHIT:          0  dMISS:          0  itACCESS:      63294  itHIT:       9080  itMISS:      54214  dtACCESS:     164704  dtHIT:      10609  dtMISS:     154095
cpu0_L1D PREFETCH  REQUESTED:   18939689  ISSUED:   17026533  CROSSED:          0  USEFUL:     307317  USELESS:     700623
cpu0_L1D AVERAGE iMISS LATENCY: 0 cycles
cpu0_L1D AVERAGE dMISS LATENCY: 33.2225 cycles
cpu0_L1D AVERAGE itMISS LATENCY: 1.88052 cycles
cpu0_L1D AVERAGE dtMISS LATENCY: 5.37665 cycles
cpu0_L1D PAGE CROSSINGS (TLB HIT):         0 
cpu0_L1D PAGE CROSSINGS (TLB MISS):         0 
cpu0_L1D AVERAGE MISS LATENCY: 40.4796 cycles
cpu0_L2C TOTAL       ACCESS:    6991155  HIT:    4050676  MISS:    2940479  iACCESS:    3299843  iHIT:    2221930  iMISS:    1077913  dACCESS:    3492867  dHIT:    1800686  dMISS:    1692181  itACCESS:      54214  itHIT:       9993  itMISS:      44221  dtACCESS:     144231  dtHIT:      18067  dtMISS:     126164
cpu0_L2C LOAD         ACCESS:    1714082  HIT:    1033726  MISS:     680356  iACCESS:     785662  iHIT:     555709  iMISS:     229953  dACCESS:     928420  dHIT:     478017  dMISS:     450403  itACCESS:          0  itHIT:          0  itMISS:          0  dtACCESS:          0  dtHIT:          0  dtMISS:          0
cpu0_L2C RFO          ACCESS:     158425  HIT:      72564  MISS:      85861  iACCESS:          0  iHIT:          0  iMISS:          0  dACCESS:     158425  dHIT:      72564  dMISS:      85861  itACCESS:          0  itHIT:          0  itMISS:          0  dtACCESS:          0  dtHIT:          0  dtMISS:          0
cpu0_L2C PREFETCH     ACCESS:    4640050  HIT:    2637792  MISS:    2002258  iACCESS:    2514181  iHIT:    1666221  iMISS:     847960  dACCESS:    2125869  dHIT:     971571  dMISS:    1154298  itACCESS:          0  itHIT:          0  itMISS:          0  dtACCESS:          0  dtHIT:          0  dtMISS:          0
cpu0_L2C WRITE        ACCESS:     280153  HIT:     278534  MISS:       1619  iACCESS:          0  iHIT:          0  iMISS:          0  dACCESS:     280153  dHIT:     278534  dMISS:       1619  itACCESS:          0  itHIT:          0  itMISS:          0  dtACCESS:          0  dtHIT:          0  dtMISS:          0
cpu0_L2C TRANSLATION  ACCESS:     198445  HIT:      28060  MISS:     170385  iACCESS:          0  iHIT:          0  iMISS:          0  dACCESS:          0  dHIT:          0  dMISS:          0  itACCESS:      54214  itHIT:       9993  itMISS:      44221  dtACCESS:     144231  dtHIT:      18067  dtMISS:     126164
cpu0_L2C PREFETCH  REQUESTED:    1378243  ISSUED:    1378243  CROSSED:          0  USEFUL:     334567  USELESS:     232633
cpu0_L2C AVERAGE iMISS LATENCY: 23.4989 cycles
cpu0_L2C AVERAGE dMISS LATENCY: 46.3037 cycles
cpu0_L2C AVERAGE itMISS LATENCY: 2.03857 cycles
cpu0_L2C AVERAGE dtMISS LATENCY: 5.85909 cycles
cpu0_L2C PAGE CROSSINGS (TLB HIT):         0 
cpu0_L2C PAGE CROSSINGS (TLB MISS):         0 
cpu0_L2C AVERAGE MISS LATENCY: 77.7002 cycles
LLC TOTAL       ACCESS:    2963909  HIT:    1865794  MISS:    1098115  iACCESS:    1023554  iHIT:     687546  iMISS:     336008  dACCESS:    1769970  dHIT:    1119743  dMISS:     650227  itACCESS:      44221  itHIT:      14242  itMISS:      29979  dtACCESS:     126164  dtHIT:      44263  dtMISS:      81901
LLC LOAD         ACCESS:     678775  HIT:     442484  MISS:     236291  iACCESS:     228554  iHIT:     153566  iMISS:      74988  dACCESS:     450221  dHIT:     288918  dMISS:     161303  itACCESS:          0  itHIT:          0  itMISS:          0  dtACCESS:          0  dtHIT:          0  dtMISS:          0
LLC RFO          ACCESS:      85858  HIT:      46339  MISS:      39519  iACCESS:          0  iHIT:          0  iMISS:          0  dACCESS:      85858  dHIT:      46339  dMISS:      39519  itACCESS:          0  itHIT:          0  itMISS:          0  dtACCESS:          0  dtHIT:          0  dtMISS:          0
LLC PREFETCH     ACCESS:    1892664  HIT:    1188487  MISS:     704177  iACCESS:     795000  iHIT:     533980  iMISS:     261020  dACCESS:    1097664  dHIT:     654507  dMISS:     443157  itACCESS:          0  itHIT:          0  itMISS:          0  dtACCESS:          0  dtHIT:          0  dtMISS:          0
LLC WRITE        ACCESS:     136227  HIT:     129979  MISS:       6248  iACCESS:          0  iHIT:          0  iMISS:          0  dACCESS:     136227  dHIT:     129979  dMISS:       6248  itACCESS:          0  itHIT:          0  itMISS:          0  dtACCESS:          0  dtHIT:          0  dtMISS:          0
LLC TRANSLATION  ACCESS:     170385  HIT:      58505  MISS:     111880  iACCESS:          0  iHIT:          0  iMISS:          0  dACCESS:          0  dHIT:          0  dMISS:          0  itACCESS:      44221  itHIT:      14242  itMISS:      29979  dtACCESS:     126164  dtHIT:      44263  dtMISS:      81901
LLC PREFETCH  REQUESTED:          0  ISSUED:          0  CROSSED:          0  USEFUL:          0  USELESS:          0
LLC AVERAGE iMISS LATENCY: 44.7916 cycles
LLC AVERAGE dMISS LATENCY: 95.2464 cycles
LLC AVERAGE itMISS LATENCY: 4.66841 cycles
LLC AVERAGE dtMISS LATENCY: 13.4391 cycles
LLC PAGE CROSSINGS (TLB HIT):         0 
LLC PAGE CROSSINGS (TLB MISS):         0 
LLC AVERAGE MISS LATENCY: 158.146 cycles

PageTableWalker TOTAL       ACCESS:      87038  
PageTableWalker AVERAGE LATENCY: 5.21974 cycles
PageTableWalker TOTAL LATENCY: 454315 cycles

DRAM Statistics
Channel 0
 RQ ROW_BUFFER_HIT:     293177
  ROW_BUFFER_MISS:     798596
 AVG DBUS CONGESTED CYCLE:    3.62189
 WQ ROW_BUFFER_HIT:      20837
  ROW_BUFFER_MISS:      20788  FULL:          0

