last_page:0x200000000000000
VMEM_RES_CAP:0x100000
PAGE_SIZE:4096
LOG2_PAGE_SIZE:12
LOG2_PAGE_TABLE_SIZE:9
page_table_levels:5
WARNING: physical memory size is smaller than virtual memory size
FDiP enabled with aggresivity 16

*** ChampSim Multicore Out-of-Order Simulator ***

Warmup Instructions: 50000000
Simulation Instructions: 100000000
Number of CPUs: 1
Small page size: 4096
Large page size: 2097152

CPU 0 Bimodal branch predictor
Basic BTB sets: 1024 ways: 8 indirect buffer size: 4096 RAS size: 64
Instruction page size distrubution: 0
Loading instruction page size distribution from /home/bsc/bsc018186/scratch/itp_asplos25_AE/dump/srv364_ap.pdst
Data page size distrubution: 0
Loading data page size distribution from /home/bsc/bsc018186/scratch/itp_asplos25_AE/dump/srv364_ap.pdst
cpu0_L2C IP-based stride prefetcher
cpu0_L1D next line prefetcher
CHiRPing...
cpu0_L1I next line prefetcher
Off-chip DRAM Size: 4 GiB Channels: 1 Width: 64-bit Data Rate: 3200 MT/s
Heartbeat CPU 0 instructions: 10000000 cycles: 2500194 heartbeat IPC: 3.99969 cumulative IPC: 3.99969 (Simulation time: 0 hr 0 min 39 sec) 
Heartbeat CPU 0 instructions: 20000000 cycles: 5000249 heartbeat IPC: 3.99992 cumulative IPC: 3.99981 (Simulation time: 0 hr 1 min 20 sec) 
Heartbeat CPU 0 instructions: 30000002 cycles: 7500284 heartbeat IPC: 3.99995 cumulative IPC: 3.99985 (Simulation time: 0 hr 2 min 2 sec) 
Heartbeat CPU 0 instructions: 40000000 cycles: 10000392 heartbeat IPC: 3.99983 cumulative IPC: 3.99985 (Simulation time: 0 hr 2 min 44 sec) 
Heartbeat CPU 0 instructions: 50000002 cycles: 12500454 heartbeat IPC: 3.99991 cumulative IPC: 3.99986 (Simulation time: 0 hr 3 min 26 sec) 
Warmup finished CPU 0 instructions: 50000002 cycles: 12500455 cumulative IPC: 3.99986 (Simulation time: 0 hr 3 min 26 sec) 

Warmup complete CPU 0 instructions: 50000002 cycles: 12500455 (Simulation time: 0 hr 3 min 26 sec) 

Heartbeat CPU 0 instructions: 60000003 cycles: 32542974 heartbeat IPC: 0.49894 cumulative IPC: 0.49894 (Simulation time: 0 hr 4 min 38 sec) 
Heartbeat CPU 0 instructions: 70000002 cycles: 53430956 heartbeat IPC: 0.478745 cumulative IPC: 0.488634 (Simulation time: 0 hr 5 min 52 sec) 
Heartbeat CPU 0 instructions: 80000003 cycles: 74715368 heartbeat IPC: 0.469828 cumulative IPC: 0.4822 (Simulation time: 0 hr 7 min 7 sec) 
Heartbeat CPU 0 instructions: 90000000 cycles: 95858189 heartbeat IPC: 0.472974 cumulative IPC: 0.47986 (Simulation time: 0 hr 8 min 21 sec) 
Heartbeat CPU 0 instructions: 100000002 cycles: 111894773 heartbeat IPC: 0.623575 cumulative IPC: 0.503047 (Simulation time: 0 hr 9 min 29 sec) 
*** Reached end of trace: /gpfs/projects/bsc18/MN4/bsc18/romol/ChampSim/traces/qualcomm_srv/srv364_ap.champsimtrace.xz
Heartbeat CPU 0 instructions: 110000000 cycles: 128681699 heartbeat IPC: 0.595702 cumulative IPC: 0.516435 (Simulation time: 0 hr 10 min 38 sec) 
Heartbeat CPU 0 instructions: 120000004 cycles: 149940810 heartbeat IPC: 0.470387 cumulative IPC: 0.509312 (Simulation time: 0 hr 11 min 52 sec) 
Heartbeat CPU 0 instructions: 130000001 cycles: 171398623 heartbeat IPC: 0.466031 cumulative IPC: 0.503468 (Simulation time: 0 hr 13 min 7 sec) 
Heartbeat CPU 0 instructions: 140000000 cycles: 192156040 heartbeat IPC: 0.481756 cumulative IPC: 0.500959 (Simulation time: 0 hr 14 min 21 sec) 
Heartbeat CPU 0 instructions: 150000003 cycles: 212738556 heartbeat IPC: 0.48585 cumulative IPC: 0.499406 (Simulation time: 0 hr 15 min 34 sec) 
Simulation finished CPU 0 instructions: 100000001 cycles: 200238102 cumulative IPC: 0.499406 (Simulation time: 0 hr 15 min 34 sec) 

Simulation complete CPU 0 instructions: 100000001 cycles: 200238102 (Simulation time: 0 hr 15 min 34 sec) 


ChampSim completed all CPUs

Saving instructions large page distribution to /home/bsc/bsc018186/scratch/itp_asplos25_AE/dump/srv364_ap.pdst...
Saving data large page distribution to /home/bsc/bsc018186/scratch/itp_asplos25_AE/dump/srv364_ap.pdst...
=== Simulation ===
CPU 0 runs /gpfs/projects/bsc18/MN4/bsc18/romol/ChampSim/traces/qualcomm_srv/srv364_ap.champsimtrace.xz

Region of Interest Statistics

CPU 0 cumulative IPC: 0.499406 instructions: 100000001 cycles: 200238102
CPU 0 Branch Prediction Accuracy: 81.9892% MPKI: 33.8614 Average ROB Occupancy at Mispredict: 11.4808
Branch type MPKI
BRANCH_DIRECT_JUMP: 1.23984
BRANCH_INDIRECT: 17.0614
BRANCH_CONDITIONAL: 10.9182
BRANCH_DIRECT_CALL: 2.32983
BRANCH_INDIRECT_CALL: 0.68171
BRANCH_RETURN: 1.63037

Instructions large pages: 0
Instructions small pages: 1091
Large page distribution for instructions: 0%

Data large pages: 0
Data small pages: 4518
Large page distribution for data: 0%

cpu0_L1I TOTAL       ACCESS:   34889811  HIT:   27552413  MISS:    7337398  iACCESS:   34889811  iHIT:   27552413  iMISS:    7337398  dACCESS:          0  dHIT:          0  dMISS:          0  itACCESS:          0  itHIT:          0  itMISS:          0  dtACCESS:          0  dtHIT:          0  dtMISS:          0
cpu0_L1I LOAD         ACCESS:    9607109  HIT:    7592582  MISS:    2014527  iACCESS:    9607109  iHIT:    7592582  iMISS:    2014527  dACCESS:          0  dHIT:          0  dMISS:          0  itACCESS:          0  itHIT:          0  itMISS:          0  dtACCESS:          0  dtHIT:          0  dtMISS:          0
cpu0_L1I RFO          ACCESS:          0  HIT:          0  MISS:          0  iACCESS:          0  iHIT:          0  iMISS:          0  dACCESS:          0  dHIT:          0  dMISS:          0  itACCESS:          0  itHIT:          0  itMISS:          0  dtACCESS:          0  dtHIT:          0  dtMISS:          0
cpu0_L1I PREFETCH     ACCESS:   25282702  HIT:   19959831  MISS:    5322871  iACCESS:   25282702  iHIT:   19959831  iMISS:    5322871  dACCESS:          0  dHIT:          0  dMISS:          0  itACCESS:          0  itHIT:          0  itMISS:          0  dtACCESS:          0  dtHIT:          0  dtMISS:          0
cpu0_L1I WRITE        ACCESS:          0  HIT:          0  MISS:          0  iACCESS:          0  iHIT:          0  iMISS:          0  dACCESS:          0  dHIT:          0  dMISS:          0  itACCESS:          0  itHIT:          0  itMISS:          0  dtACCESS:          0  dtHIT:          0  dtMISS:          0
cpu0_L1I TRANSLATION  ACCESS:          0  HIT:          0  MISS:          0  iACCESS:          0  iHIT:          0  iMISS:          0  dACCESS:          0  dHIT:          0  dMISS:          0  itACCESS:          0  itHIT:          0  itMISS:          0  dtACCESS:          0  dtHIT:          0  dtMISS:          0
cpu0_L1I PREFETCH  REQUESTED:   27531302  ISSUED:   27531302  CROSSED:          0  USEFUL:    1841356  USELESS:     610827
cpu0_L1I AVERAGE iMISS LATENCY: 20.14 cycles
cpu0_L1I AVERAGE dMISS LATENCY: 0 cycles
cpu0_L1I AVERAGE itMISS LATENCY: 0 cycles
cpu0_L1I AVERAGE dtMISS LATENCY: 0 cycles
cpu0_L1I PAGE CROSSINGS (TLB HIT):         0 
cpu0_L1I PAGE CROSSINGS (TLB MISS):         0 
cpu0_L1I AVERAGE MISS LATENCY: 20.14 cycles
cpu0_ITLB TOTAL       ACCESS:   29457529  HIT:   27635000  MISS:    1822529  iACCESS:   29457529  iHIT:   27635000  iMISS:    1822529  dACCESS:          0  dHIT:          0  dMISS:          0  itACCESS:          0  itHIT:          0  itMISS:          0  dtACCESS:          0  dtHIT:          0  dtMISS:          0
cpu0_ITLB LOAD         ACCESS:   29457529  HIT:   27635000  MISS:    1822529  iACCESS:   29457529  iHIT:   27635000  iMISS:    1822529  dACCESS:          0  dHIT:          0  dMISS:          0  itACCESS:          0  itHIT:          0  itMISS:          0  dtACCESS:          0  dtHIT:          0  dtMISS:          0
cpu0_ITLB RFO          ACCESS:          0  HIT:          0  MISS:          0  iACCESS:          0  iHIT:          0  iMISS:          0  dACCESS:          0  dHIT:          0  dMISS:          0  itACCESS:          0  itHIT:          0  itMISS:          0  dtACCESS:          0  dtHIT:          0  dtMISS:          0
cpu0_ITLB PREFETCH     ACCESS:          0  HIT:          0  MISS:          0  iACCESS:          0  iHIT:          0  iMISS:          0  dACCESS:          0  dHIT:          0  dMISS:          0  itACCESS:          0  itHIT:          0  itMISS:          0  dtACCESS:          0  dtHIT:          0  dtMISS:          0
cpu0_ITLB WRITE        ACCESS:          0  HIT:          0  MISS:          0  iACCESS:          0  iHIT:          0  iMISS:          0  dACCESS:          0  dHIT:          0  dMISS:          0  itACCESS:          0  itHIT:          0  itMISS:          0  dtACCESS:          0  dtHIT:          0  dtMISS:          0
cpu0_ITLB TRANSLATION  ACCESS:          0  HIT:          0  MISS:          0  iACCESS:          0  iHIT:          0  iMISS:          0  dACCESS:          0  dHIT:          0  dMISS:          0  itACCESS:          0  itHIT:          0  itMISS:          0  dtACCESS:          0  dtHIT:          0  dtMISS:          0
cpu0_ITLB PREFETCH  REQUESTED:          0  ISSUED:          0  CROSSED:          0  USEFUL:     308298  USELESS:      57854
cpu0_ITLB AVERAGE iMISS LATENCY: 8.06068 cycles
cpu0_ITLB AVERAGE dMISS LATENCY: 0 cycles
cpu0_ITLB AVERAGE itMISS LATENCY: 0 cycles
cpu0_ITLB AVERAGE dtMISS LATENCY: 0 cycles
cpu0_ITLB PAGE CROSSINGS (TLB HIT):         0 
cpu0_ITLB PAGE CROSSINGS (TLB MISS):         0 
cpu0_ITLB AVERAGE MISS LATENCY: 8.06068 cycles
cpu0_DTLB TOTAL       ACCESS:   29025376  HIT:   25581968  MISS:    3443408  iACCESS:          0  iHIT:          0  iMISS:          0  dACCESS:   29025376  dHIT:   25581968  dMISS:    3443408  itACCESS:          0  itHIT:          0  itMISS:          0  dtACCESS:          0  dtHIT:          0  dtMISS:          0
cpu0_DTLB LOAD         ACCESS:   29025376  HIT:   25581968  MISS:    3443408  iACCESS:          0  iHIT:          0  iMISS:          0  dACCESS:   29025376  dHIT:   25581968  dMISS:    3443408  itACCESS:          0  itHIT:          0  itMISS:          0  dtACCESS:          0  dtHIT:          0  dtMISS:          0
cpu0_DTLB RFO          ACCESS:          0  HIT:          0  MISS:          0  iACCESS:          0  iHIT:          0  iMISS:          0  dACCESS:          0  dHIT:          0  dMISS:          0  itACCESS:          0  itHIT:          0  itMISS:          0  dtACCESS:          0  dtHIT:          0  dtMISS:          0
cpu0_DTLB PREFETCH     ACCESS:          0  HIT:          0  MISS:          0  iACCESS:          0  iHIT:          0  iMISS:          0  dACCESS:          0  dHIT:          0  dMISS:          0  itACCESS:          0  itHIT:          0  itMISS:          0  dtACCESS:          0  dtHIT:          0  dtMISS:          0
cpu0_DTLB WRITE        ACCESS:          0  HIT:          0  MISS:          0  iACCESS:          0  iHIT:          0  iMISS:          0  dACCESS:          0  dHIT:          0  dMISS:          0  itACCESS:          0  itHIT:          0  itMISS:          0  dtACCESS:          0  dtHIT:          0  dtMISS:          0
cpu0_DTLB TRANSLATION  ACCESS:          0  HIT:          0  MISS:          0  iACCESS:          0  iHIT:          0  iMISS:          0  dACCESS:          0  dHIT:          0  dMISS:          0  itACCESS:          0  itHIT:          0  itMISS:          0  dtACCESS:          0  dtHIT:          0  dtMISS:          0
cpu0_DTLB PREFETCH  REQUESTED:          0  ISSUED:          0  CROSSED:          0  USEFUL:          0  USELESS:          0
cpu0_DTLB AVERAGE iMISS LATENCY: 0 cycles
cpu0_DTLB AVERAGE dMISS LATENCY: 12.7975 cycles
cpu0_DTLB AVERAGE itMISS LATENCY: 0 cycles
cpu0_DTLB AVERAGE dtMISS LATENCY: 0 cycles
cpu0_DTLB PAGE CROSSINGS (TLB HIT):         0 
cpu0_DTLB PAGE CROSSINGS (TLB MISS):         0 
cpu0_DTLB AVERAGE MISS LATENCY: 12.7975 cycles
cpu0_STLB TOTAL       ACCESS:    2258310  HIT:    2035091  MISS:     223219  iACCESS:     366154  iHIT:     281399  iMISS:      84755  dACCESS:    1892156  dHIT:    1753692  dMISS:     138464  itACCESS:          0  itHIT:          0  itMISS:          0  dtACCESS:          0  dtHIT:          0  dtMISS:          0
cpu0_STLB LOAD         ACCESS:    2258310  HIT:    2035091  MISS:     223219  iACCESS:     366154  iHIT:     281399  iMISS:      84755  dACCESS:    1892156  dHIT:    1753692  dMISS:     138464  itACCESS:          0  itHIT:          0  itMISS:          0  dtACCESS:          0  dtHIT:          0  dtMISS:          0
cpu0_STLB RFO          ACCESS:          0  HIT:          0  MISS:          0  iACCESS:          0  iHIT:          0  iMISS:          0  dACCESS:          0  dHIT:          0  dMISS:          0  itACCESS:          0  itHIT:          0  itMISS:          0  dtACCESS:          0  dtHIT:          0  dtMISS:          0
cpu0_STLB PREFETCH     ACCESS:          0  HIT:          0  MISS:          0  iACCESS:          0  iHIT:          0  iMISS:          0  dACCESS:          0  dHIT:          0  dMISS:          0  itACCESS:          0  itHIT:          0  itMISS:          0  dtACCESS:          0  dtHIT:          0  dtMISS:          0
cpu0_STLB WRITE        ACCESS:          0  HIT:          0  MISS:          0  iACCESS:          0  iHIT:          0  iMISS:          0  dACCESS:          0  dHIT:          0  dMISS:          0  itACCESS:          0  itHIT:          0  itMISS:          0  dtACCESS:          0  dtHIT:          0  dtMISS:          0
cpu0_STLB TRANSLATION  ACCESS:          0  HIT:          0  MISS:          0  iACCESS:          0  iHIT:          0  iMISS:          0  dACCESS:          0  dHIT:          0  dMISS:          0  itACCESS:          0  itHIT:          0  itMISS:          0  dtACCESS:          0  dtHIT:          0  dtMISS:          0
cpu0_STLB PREFETCH  REQUESTED:          0  ISSUED:          0  CROSSED:          0  USEFUL:          0  USELESS:          0
cpu0_STLB AVERAGE iMISS LATENCY: 52.6895 cycles
cpu0_STLB AVERAGE dMISS LATENCY: 129.015 cycles
cpu0_STLB AVERAGE itMISS LATENCY: 0 cycles
cpu0_STLB AVERAGE dtMISS LATENCY: 0 cycles
cpu0_STLB PAGE CROSSINGS (TLB HIT):         0 
cpu0_STLB PAGE CROSSINGS (TLB MISS):         0 
cpu0_STLB AVERAGE MISS LATENCY: 181.704 cycles
cpu0_L1D TOTAL       ACCESS:   44012434  HIT:   38535201  MISS:    5477233  iACCESS:          0  iHIT:          0  iMISS:          0  dACCESS:   43727573  dHIT:   38508843  dMISS:    5218730  itACCESS:      90881  itHIT:      14795  itMISS:      76086  dtACCESS:     193980  dtHIT:      11563  dtMISS:     182417
cpu0_L1D LOAD         ACCESS:   20732992  HIT:   17827812  MISS:    2905180  iACCESS:          0  iHIT:          0  iMISS:          0  dACCESS:   20732992  dHIT:   17827812  dMISS:    2905180  itACCESS:          0  itHIT:          0  itMISS:          0  dtACCESS:          0  dtHIT:          0  dtMISS:          0
cpu0_L1D RFO          ACCESS:          0  HIT:          0  MISS:          0  iACCESS:          0  iHIT:          0  iMISS:          0  dACCESS:          0  dHIT:          0  dMISS:          0  itACCESS:          0  itHIT:          0  itMISS:          0  dtACCESS:          0  dtHIT:          0  dtMISS:          0
cpu0_L1D PREFETCH     ACCESS:   13064873  HIT:   11233511  MISS:    1831362  iACCESS:          0  iHIT:          0  iMISS:          0  dACCESS:   13064873  dHIT:   11233511  dMISS:    1831362  itACCESS:          0  itHIT:          0  itMISS:          0  dtACCESS:          0  dtHIT:          0  dtMISS:          0
cpu0_L1D WRITE        ACCESS:    9929708  HIT:    9447520  MISS:     482188  iACCESS:          0  iHIT:          0  iMISS:          0  dACCESS:    9929708  dHIT:    9447520  dMISS:     482188  itACCESS:          0  itHIT:          0  itMISS:          0  dtACCESS:          0  dtHIT:          0  dtMISS:          0
cpu0_L1D TRANSLATION  ACCESS:     284861  HIT:      26358  MISS:     258503  iACCESS:          0  iHIT:          0  iMISS:          0  dACCESS:          0  dHIT:          0  dMISS:          0  itACCESS:      90881  itHIT:      14795  itMISS:      76086  dtACCESS:     193980  dtHIT:      11563  dtMISS:     182417
cpu0_L1D PREFETCH  REQUESTED:   20732992  ISSUED:   17416460  CROSSED:          0  USEFUL:     289277  USELESS:     789315
cpu0_L1D AVERAGE iMISS LATENCY: 0 cycles
cpu0_L1D AVERAGE dMISS LATENCY: 32.05 cycles
cpu0_L1D AVERAGE itMISS LATENCY: 2.01178 cycles
cpu0_L1D AVERAGE dtMISS LATENCY: 4.90831 cycles
cpu0_L1D PAGE CROSSINGS (TLB HIT):         0 
cpu0_L1D PAGE CROSSINGS (TLB MISS):         0 
cpu0_L1D AVERAGE MISS LATENCY: 38.9701 cycles
cpu0_L2C TOTAL       ACCESS:    8013933  HIT:    4678639  MISS:    3335294  iACCESS:    3134175  iHIT:    1896322  iMISS:    1237853  dACCESS:    4630687  dHIT:    2746960  dMISS:    1883727  itACCESS:      76086  itHIT:      12720  itMISS:      63366  dtACCESS:     172985  dtHIT:      22637  dtMISS:     150348
cpu0_L2C LOAD         ACCESS:    2668798  HIT:    1911243  MISS:     757555  iACCESS:     717076  iHIT:     459465  iMISS:     257611  dACCESS:    1951722  dHIT:    1451778  dMISS:     499944  itACCESS:          0  itHIT:          0  itMISS:          0  dtACCESS:          0  dtHIT:          0  dtMISS:          0
cpu0_L2C RFO          ACCESS:     167951  HIT:      69589  MISS:      98362  iACCESS:          0  iHIT:          0  iMISS:          0  dACCESS:     167951  dHIT:      69589  dMISS:      98362  itACCESS:          0  itHIT:          0  itMISS:          0  dtACCESS:          0  dtHIT:          0  dtMISS:          0
cpu0_L2C PREFETCH     ACCESS:    4668763  HIT:    2403720  MISS:    2265043  iACCESS:    2417099  iHIT:    1436857  iMISS:     980242  dACCESS:    2251664  dHIT:     966863  dMISS:    1284801  itACCESS:          0  itHIT:          0  itMISS:          0  dtACCESS:          0  dtHIT:          0  dtMISS:          0
cpu0_L2C WRITE        ACCESS:     259350  HIT:     258730  MISS:        620  iACCESS:          0  iHIT:          0  iMISS:          0  dACCESS:     259350  dHIT:     258730  dMISS:        620  itACCESS:          0  itHIT:          0  itMISS:          0  dtACCESS:          0  dtHIT:          0  dtMISS:          0
cpu0_L2C TRANSLATION  ACCESS:     249071  HIT:      35357  MISS:     213714  iACCESS:          0  iHIT:          0  iMISS:          0  dACCESS:          0  dHIT:          0  dMISS:          0  itACCESS:      76086  itHIT:      12720  itMISS:      63366  dtACCESS:     172985  dtHIT:      22637  dtMISS:     150348
cpu0_L2C PREFETCH  REQUESTED:    1415212  ISSUED:    1414460  CROSSED:          0  USEFUL:     330040  USELESS:     278797
cpu0_L2C AVERAGE iMISS LATENCY: 36.1157 cycles
cpu0_L2C AVERAGE dMISS LATENCY: 61.8733 cycles
cpu0_L2C AVERAGE itMISS LATENCY: 3.07872 cycles
cpu0_L2C AVERAGE dtMISS LATENCY: 7.54564 cycles
cpu0_L2C PAGE CROSSINGS (TLB HIT):         0 
cpu0_L2C PAGE CROSSINGS (TLB MISS):         0 
cpu0_L2C AVERAGE MISS LATENCY: 108.614 cycles
LLC TOTAL       ACCESS:    3297726  HIT:    1409402  MISS:    1888324  iACCESS:    1162842  iHIT:     497997  iMISS:     664845  dACCESS:    1921170  dHIT:     868121  dMISS:    1053049  itACCESS:      63366  itHIT:      11788  itMISS:      51578  dtACCESS:     150348  dtHIT:      31496  dtMISS:     118852
LLC LOAD         ACCESS:     751529  HIT:     344871  MISS:     406658  iACCESS:     256468  iHIT:     115780  iMISS:     140688  dACCESS:     495061  dHIT:     229091  dMISS:     265970  itACCESS:          0  itHIT:          0  itMISS:          0  dtACCESS:          0  dtHIT:          0  dtMISS:          0
LLC RFO          ACCESS:      98358  HIT:      36310  MISS:      62048  iACCESS:          0  iHIT:          0  iMISS:          0  dACCESS:      98358  dHIT:      36310  dMISS:      62048  itACCESS:          0  itHIT:          0  itMISS:          0  dtACCESS:          0  dtHIT:          0  dtMISS:          0
LLC PREFETCH     ACCESS:    2095495  HIT:     853573  MISS:    1241922  iACCESS:     906374  iHIT:     382217  iMISS:     524157  dACCESS:    1189121  dHIT:     471356  dMISS:     717765  itACCESS:          0  itHIT:          0  itMISS:          0  dtACCESS:          0  dtHIT:          0  dtMISS:          0
LLC WRITE        ACCESS:     138630  HIT:     131364  MISS:       7266  iACCESS:          0  iHIT:          0  iMISS:          0  dACCESS:     138630  dHIT:     131364  dMISS:       7266  itACCESS:          0  itHIT:          0  itMISS:          0  dtACCESS:          0  dtHIT:          0  dtMISS:          0
LLC TRANSLATION  ACCESS:     213714  HIT:      43284  MISS:     170430  iACCESS:          0  iHIT:          0  iMISS:          0  dACCESS:          0  dHIT:          0  dMISS:          0  itACCESS:      63366  itHIT:      11788  itMISS:      51578  dtACCESS:     150348  dtHIT:      31496  dtMISS:     118852
LLC PREFETCH  REQUESTED:          0  ISSUED:          0  CROSSED:          0  USEFUL:          0  USELESS:          0
LLC AVERAGE iMISS LATENCY: 51.7234 cycles
LLC AVERAGE dMISS LATENCY: 91.606 cycles
LLC AVERAGE itMISS LATENCY: 4.77531 cycles
LLC AVERAGE dtMISS LATENCY: 11.7596 cycles
LLC PAGE CROSSINGS (TLB HIT):         0 
LLC PAGE CROSSINGS (TLB MISS):         0 
LLC AVERAGE MISS LATENCY: 159.865 cycles

PageTableWalker TOTAL       ACCESS:     120953  
PageTableWalker AVERAGE LATENCY: 5.04119 cycles
PageTableWalker TOTAL LATENCY: 609747 cycles

DRAM Statistics
Channel 0
 RQ ROW_BUFFER_HIT:     522120
  ROW_BUFFER_MISS:    1348375
 AVG DBUS CONGESTED CYCLE:    3.63026
 WQ ROW_BUFFER_HIT:      36861
  ROW_BUFFER_MISS:      23794  FULL:          0

