last_page:0x200000000000000
VMEM_RES_CAP:0x100000
PAGE_SIZE:4096
LOG2_PAGE_SIZE:12
LOG2_PAGE_TABLE_SIZE:9
page_table_levels:5
WARNING: physical memory size is smaller than virtual memory size
FDiP enabled with aggresivity 16

*** ChampSim Multicore Out-of-Order Simulator ***

Warmup Instructions: 50000000
Simulation Instructions: 100000000
Number of CPUs: 1
Small page size: 4096
Large page size: 2097152

CPU 0 Bimodal branch predictor
Basic BTB sets: 1024 ways: 8 indirect buffer size: 4096 RAS size: 64
Instruction page size distrubution: 0
Loading instruction page size distribution from /home/bsc/bsc018186/scratch/itp_asplos25_AE/dump/srv359_ap.pdst
Data page size distrubution: 0
Loading data page size distribution from /home/bsc/bsc018186/scratch/itp_asplos25_AE/dump/srv359_ap.pdst
cpu0_L2C IP-based stride prefetcher
cpu0_L2C is using xPTP/LRU
	TLB_LOWER_STRESS_THRESHOLD:1
	TLB_UPPER_STRESS_THRESHOLD:9
	MIN_EVICTION_POSITION:4
cpu0_L1D next line prefetcher
cpu0_STLB using iTP with max lru@8
cpu0_STLB using iTP with instr@0 and data@2
Init sat counter with 3 bits (max:50).
cpu0_L1I next line prefetcher
Off-chip DRAM Size: 4 GiB Channels: 1 Width: 64-bit Data Rate: 3200 MT/s
Heartbeat CPU 0 instructions: 10000001 cycles: 2500202 heartbeat IPC: 3.99968 cumulative IPC: 3.99968 (Simulation time: 0 hr 0 min 41 sec) 
Heartbeat CPU 0 instructions: 20000002 cycles: 5000419 heartbeat IPC: 3.99966 cumulative IPC: 3.99967 (Simulation time: 0 hr 1 min 25 sec) 
Heartbeat CPU 0 instructions: 30000000 cycles: 7500490 heartbeat IPC: 3.99989 cumulative IPC: 3.99974 (Simulation time: 0 hr 2 min 10 sec) 
Heartbeat CPU 0 instructions: 40000000 cycles: 10000777 heartbeat IPC: 3.99955 cumulative IPC: 3.99969 (Simulation time: 0 hr 2 min 54 sec) 
Heartbeat CPU 0 instructions: 50000001 cycles: 12857779 heartbeat IPC: 3.50018 cumulative IPC: 3.8887 (Simulation time: 0 hr 3 min 37 sec) 
Warmup finished CPU 0 instructions: 50000001 cycles: 12857780 cumulative IPC: 3.8887 (Simulation time: 0 hr 3 min 37 sec) 

Warmup complete CPU 0 instructions: 50000001 cycles: 12857780 (Simulation time: 0 hr 3 min 37 sec) 

Heartbeat CPU 0 instructions: 60000001 cycles: 23650662 heartbeat IPC: 0.926537 cumulative IPC: 0.926537 (Simulation time: 0 hr 4 min 39 sec) 
Heartbeat CPU 0 instructions: 70000002 cycles: 37043178 heartbeat IPC: 0.746686 cumulative IPC: 0.826946 (Simulation time: 0 hr 5 min 45 sec) 
Heartbeat CPU 0 instructions: 80000000 cycles: 49650205 heartbeat IPC: 0.793209 cumulative IPC: 0.815386 (Simulation time: 0 hr 6 min 56 sec) 
Heartbeat CPU 0 instructions: 90000000 cycles: 63375386 heartbeat IPC: 0.728588 cumulative IPC: 0.791804 (Simulation time: 0 hr 8 min 9 sec) 
Heartbeat CPU 0 instructions: 100000004 cycles: 77209106 heartbeat IPC: 0.722872 cumulative IPC: 0.776985 (Simulation time: 0 hr 9 min 22 sec) 
*** Reached end of trace: /gpfs/projects/bsc18/MN4/bsc18/romol/ChampSim/traces/qualcomm_srv/srv359_ap.champsimtrace.xz
Heartbeat CPU 0 instructions: 110000003 cycles: 89294715 heartbeat IPC: 0.827431 cumulative IPC: 0.784961 (Simulation time: 0 hr 10 min 33 sec) 
Heartbeat CPU 0 instructions: 120000000 cycles: 102245695 heartbeat IPC: 0.772143 cumulative IPC: 0.783104 (Simulation time: 0 hr 11 min 45 sec) 
Heartbeat CPU 0 instructions: 130000000 cycles: 114591792 heartbeat IPC: 0.809973 cumulative IPC: 0.786365 (Simulation time: 0 hr 12 min 55 sec) 
Heartbeat CPU 0 instructions: 140000002 cycles: 127837723 heartbeat IPC: 0.754949 cumulative IPC: 0.782746 (Simulation time: 0 hr 14 min 2 sec) 
Heartbeat CPU 0 instructions: 150000000 cycles: 138992757 heartbeat IPC: 0.896457 cumulative IPC: 0.792802 (Simulation time: 0 hr 15 min 12 sec) 
Simulation finished CPU 0 instructions: 100000000 cycles: 126134981 cumulative IPC: 0.792802 (Simulation time: 0 hr 15 min 12 sec) 

Simulation complete CPU 0 instructions: 100000000 cycles: 126134981 (Simulation time: 0 hr 15 min 12 sec) 


ChampSim completed all CPUs

Saving instructions large page distribution to /home/bsc/bsc018186/scratch/itp_asplos25_AE/dump/srv359_ap.pdst...
Saving data large page distribution to /home/bsc/bsc018186/scratch/itp_asplos25_AE/dump/srv359_ap.pdst...
=== Simulation ===
CPU 0 runs /gpfs/projects/bsc18/MN4/bsc18/romol/ChampSim/traces/qualcomm_srv/srv359_ap.champsimtrace.xz

Region of Interest Statistics

CPU 0 cumulative IPC: 0.792802 instructions: 100000000 cycles: 126134981
CPU 0 Branch Prediction Accuracy: 85.221% MPKI: 27.8546 Average ROB Occupancy at Mispredict: 13.8715
Branch type MPKI
BRANCH_DIRECT_JUMP: 0.928171
BRANCH_INDIRECT: 14.5363
BRANCH_CONDITIONAL: 8.98471
BRANCH_DIRECT_CALL: 1.67339
BRANCH_INDIRECT_CALL: 0.517231
BRANCH_RETURN: 1.2148

Instructions large pages: 0
Instructions small pages: 1096
Large page distribution for instructions: 0%

Data large pages: 0
Data small pages: 9809
Large page distribution for data: 0%

cpu0_L1I TOTAL       ACCESS:   34327090  HIT:   27030762  MISS:    7296328  iACCESS:   34327090  iHIT:   27030762  iMISS:    7296328  dACCESS:          0  dHIT:          0  dMISS:          0  itACCESS:          0  itHIT:          0  itMISS:          0  dtACCESS:          0  dtHIT:          0  dtMISS:          0
cpu0_L1I LOAD         ACCESS:    9494453  HIT:    7447551  MISS:    2046902  iACCESS:    9494453  iHIT:    7447551  iMISS:    2046902  dACCESS:          0  dHIT:          0  dMISS:          0  itACCESS:          0  itHIT:          0  itMISS:          0  dtACCESS:          0  dtHIT:          0  dtMISS:          0
cpu0_L1I RFO          ACCESS:          0  HIT:          0  MISS:          0  iACCESS:          0  iHIT:          0  iMISS:          0  dACCESS:          0  dHIT:          0  dMISS:          0  itACCESS:          0  itHIT:          0  itMISS:          0  dtACCESS:          0  dtHIT:          0  dtMISS:          0
cpu0_L1I PREFETCH     ACCESS:   24832637  HIT:   19583211  MISS:    5249426  iACCESS:   24832637  iHIT:   19583211  iMISS:    5249426  dACCESS:          0  dHIT:          0  dMISS:          0  itACCESS:          0  itHIT:          0  itMISS:          0  dtACCESS:          0  dtHIT:          0  dtMISS:          0
cpu0_L1I WRITE        ACCESS:          0  HIT:          0  MISS:          0  iACCESS:          0  iHIT:          0  iMISS:          0  dACCESS:          0  dHIT:          0  dMISS:          0  itACCESS:          0  itHIT:          0  itMISS:          0  dtACCESS:          0  dtHIT:          0  dtMISS:          0
cpu0_L1I TRANSLATION  ACCESS:          0  HIT:          0  MISS:          0  iACCESS:          0  iHIT:          0  iMISS:          0  dACCESS:          0  dHIT:          0  dMISS:          0  itACCESS:          0  itHIT:          0  itMISS:          0  dtACCESS:          0  dtHIT:          0  dtMISS:          0
cpu0_L1I PREFETCH  REQUESTED:   27118781  ISSUED:   27118608  CROSSED:          0  USEFUL:    1735219  USELESS:     573315
cpu0_L1I AVERAGE iMISS LATENCY: 11.455 cycles
cpu0_L1I AVERAGE dMISS LATENCY: 0 cycles
cpu0_L1I AVERAGE itMISS LATENCY: 0 cycles
cpu0_L1I AVERAGE dtMISS LATENCY: 0 cycles
cpu0_L1I PAGE CROSSINGS (TLB HIT):         0 
cpu0_L1I PAGE CROSSINGS (TLB MISS):         0 
cpu0_L1I AVERAGE MISS LATENCY: 11.455 cycles
cpu0_ITLB TOTAL       ACCESS:   28620593  HIT:   26824174  MISS:    1796419  iACCESS:   28620593  iHIT:   26824174  iMISS:    1796419  dACCESS:          0  dHIT:          0  dMISS:          0  itACCESS:          0  itHIT:          0  itMISS:          0  dtACCESS:          0  dtHIT:          0  dtMISS:          0
cpu0_ITLB LOAD         ACCESS:   28620593  HIT:   26824174  MISS:    1796419  iACCESS:   28620593  iHIT:   26824174  iMISS:    1796419  dACCESS:          0  dHIT:          0  dMISS:          0  itACCESS:          0  itHIT:          0  itMISS:          0  dtACCESS:          0  dtHIT:          0  dtMISS:          0
cpu0_ITLB RFO          ACCESS:          0  HIT:          0  MISS:          0  iACCESS:          0  iHIT:          0  iMISS:          0  dACCESS:          0  dHIT:          0  dMISS:          0  itACCESS:          0  itHIT:          0  itMISS:          0  dtACCESS:          0  dtHIT:          0  dtMISS:          0
cpu0_ITLB PREFETCH     ACCESS:          0  HIT:          0  MISS:          0  iACCESS:          0  iHIT:          0  iMISS:          0  dACCESS:          0  dHIT:          0  dMISS:          0  itACCESS:          0  itHIT:          0  itMISS:          0  dtACCESS:          0  dtHIT:          0  dtMISS:          0
cpu0_ITLB WRITE        ACCESS:          0  HIT:          0  MISS:          0  iACCESS:          0  iHIT:          0  iMISS:          0  dACCESS:          0  dHIT:          0  dMISS:          0  itACCESS:          0  itHIT:          0  itMISS:          0  dtACCESS:          0  dtHIT:          0  dtMISS:          0
cpu0_ITLB TRANSLATION  ACCESS:          0  HIT:          0  MISS:          0  iACCESS:          0  iHIT:          0  iMISS:          0  dACCESS:          0  dHIT:          0  dMISS:          0  itACCESS:          0  itHIT:          0  itMISS:          0  dtACCESS:          0  dtHIT:          0  dtMISS:          0
cpu0_ITLB PREFETCH  REQUESTED:          0  ISSUED:          0  CROSSED:          0  USEFUL:     293715  USELESS:      61015
cpu0_ITLB AVERAGE iMISS LATENCY: 2.1625 cycles
cpu0_ITLB AVERAGE dMISS LATENCY: 0 cycles
cpu0_ITLB AVERAGE itMISS LATENCY: 0 cycles
cpu0_ITLB AVERAGE dtMISS LATENCY: 0 cycles
cpu0_ITLB PAGE CROSSINGS (TLB HIT):         0 
cpu0_ITLB PAGE CROSSINGS (TLB MISS):         0 
cpu0_ITLB AVERAGE MISS LATENCY: 2.1625 cycles
cpu0_DTLB TOTAL       ACCESS:   29035714  HIT:   25367601  MISS:    3668113  iACCESS:          0  iHIT:          0  iMISS:          0  dACCESS:   29035714  dHIT:   25367601  dMISS:    3668113  itACCESS:          0  itHIT:          0  itMISS:          0  dtACCESS:          0  dtHIT:          0  dtMISS:          0
cpu0_DTLB LOAD         ACCESS:   29035714  HIT:   25367601  MISS:    3668113  iACCESS:          0  iHIT:          0  iMISS:          0  dACCESS:   29035714  dHIT:   25367601  dMISS:    3668113  itACCESS:          0  itHIT:          0  itMISS:          0  dtACCESS:          0  dtHIT:          0  dtMISS:          0
cpu0_DTLB RFO          ACCESS:          0  HIT:          0  MISS:          0  iACCESS:          0  iHIT:          0  iMISS:          0  dACCESS:          0  dHIT:          0  dMISS:          0  itACCESS:          0  itHIT:          0  itMISS:          0  dtACCESS:          0  dtHIT:          0  dtMISS:          0
cpu0_DTLB PREFETCH     ACCESS:          0  HIT:          0  MISS:          0  iACCESS:          0  iHIT:          0  iMISS:          0  dACCESS:          0  dHIT:          0  dMISS:          0  itACCESS:          0  itHIT:          0  itMISS:          0  dtACCESS:          0  dtHIT:          0  dtMISS:          0
cpu0_DTLB WRITE        ACCESS:          0  HIT:          0  MISS:          0  iACCESS:          0  iHIT:          0  iMISS:          0  dACCESS:          0  dHIT:          0  dMISS:          0  itACCESS:          0  itHIT:          0  itMISS:          0  dtACCESS:          0  dtHIT:          0  dtMISS:          0
cpu0_DTLB TRANSLATION  ACCESS:          0  HIT:          0  MISS:          0  iACCESS:          0  iHIT:          0  iMISS:          0  dACCESS:          0  dHIT:          0  dMISS:          0  itACCESS:          0  itHIT:          0  itMISS:          0  dtACCESS:          0  dtHIT:          0  dtMISS:          0
cpu0_DTLB PREFETCH  REQUESTED:          0  ISSUED:          0  CROSSED:          0  USEFUL:          0  USELESS:          0
cpu0_DTLB AVERAGE iMISS LATENCY: 0 cycles
cpu0_DTLB AVERAGE dMISS LATENCY: 7.58757 cycles
cpu0_DTLB AVERAGE itMISS LATENCY: 0 cycles
cpu0_DTLB AVERAGE dtMISS LATENCY: 0 cycles
cpu0_DTLB PAGE CROSSINGS (TLB HIT):         0 
cpu0_DTLB PAGE CROSSINGS (TLB MISS):         0 
cpu0_DTLB AVERAGE MISS LATENCY: 7.58757 cycles
cpu0_STLB TOTAL       ACCESS:    2331753  HIT:    2197797  MISS:     133956  iACCESS:     354733  iHIT:     344710  iMISS:      10023  dACCESS:    1977020  dHIT:    1853087  dMISS:     123933  itACCESS:          0  itHIT:          0  itMISS:          0  dtACCESS:          0  dtHIT:          0  dtMISS:          0
cpu0_STLB LOAD         ACCESS:    2331753  HIT:    2197797  MISS:     133956  iACCESS:     354733  iHIT:     344710  iMISS:      10023  dACCESS:    1977020  dHIT:    1853087  dMISS:     123933  itACCESS:          0  itHIT:          0  itMISS:          0  dtACCESS:          0  dtHIT:          0  dtMISS:          0
cpu0_STLB RFO          ACCESS:          0  HIT:          0  MISS:          0  iACCESS:          0  iHIT:          0  iMISS:          0  dACCESS:          0  dHIT:          0  dMISS:          0  itACCESS:          0  itHIT:          0  itMISS:          0  dtACCESS:          0  dtHIT:          0  dtMISS:          0
cpu0_STLB PREFETCH     ACCESS:          0  HIT:          0  MISS:          0  iACCESS:          0  iHIT:          0  iMISS:          0  dACCESS:          0  dHIT:          0  dMISS:          0  itACCESS:          0  itHIT:          0  itMISS:          0  dtACCESS:          0  dtHIT:          0  dtMISS:          0
cpu0_STLB WRITE        ACCESS:          0  HIT:          0  MISS:          0  iACCESS:          0  iHIT:          0  iMISS:          0  dACCESS:          0  dHIT:          0  dMISS:          0  itACCESS:          0  itHIT:          0  itMISS:          0  dtACCESS:          0  dtHIT:          0  dtMISS:          0
cpu0_STLB TRANSLATION  ACCESS:          0  HIT:          0  MISS:          0  iACCESS:          0  iHIT:          0  iMISS:          0  dACCESS:          0  dHIT:          0  dMISS:          0  itACCESS:          0  itHIT:          0  itMISS:          0  dtACCESS:          0  dtHIT:          0  dtMISS:          0
cpu0_STLB PREFETCH  REQUESTED:          0  ISSUED:          0  CROSSED:          0  USEFUL:          0  USELESS:          0
cpu0_STLB AVERAGE iMISS LATENCY: 8.42296 cycles
cpu0_STLB AVERAGE dMISS LATENCY: 88.7709 cycles
cpu0_STLB AVERAGE itMISS LATENCY: 0 cycles
cpu0_STLB AVERAGE dtMISS LATENCY: 0 cycles
cpu0_STLB PAGE CROSSINGS (TLB HIT):         0 
cpu0_STLB PAGE CROSSINGS (TLB MISS):         0 
cpu0_STLB AVERAGE MISS LATENCY: 97.1938 cycles
cpu0_L1D TOTAL       ACCESS:   44197128  HIT:   38471134  MISS:    5725994  iACCESS:          0  iHIT:          0  iMISS:          0  dACCESS:   43997922  dHIT:   38458273  dMISS:    5539649  itACCESS:      12070  itHIT:       1063  itMISS:      11007  dtACCESS:     187136  dtHIT:      11798  dtMISS:     175338
cpu0_L1D LOAD         ACCESS:   21063408  HIT:   17937711  MISS:    3125697  iACCESS:          0  iHIT:          0  iMISS:          0  dACCESS:   21063408  dHIT:   17937711  dMISS:    3125697  itACCESS:          0  itHIT:          0  itMISS:          0  dtACCESS:          0  dtHIT:          0  dtMISS:          0
cpu0_L1D RFO          ACCESS:          0  HIT:          0  MISS:          0  iACCESS:          0  iHIT:          0  iMISS:          0  dACCESS:          0  dHIT:          0  dMISS:          0  itACCESS:          0  itHIT:          0  itMISS:          0  dtACCESS:          0  dtHIT:          0  dtMISS:          0
cpu0_L1D PREFETCH     ACCESS:   13015675  HIT:   11021825  MISS:    1993850  iACCESS:          0  iHIT:          0  iMISS:          0  dACCESS:   13015675  dHIT:   11021825  dMISS:    1993850  itACCESS:          0  itHIT:          0  itMISS:          0  dtACCESS:          0  dtHIT:          0  dtMISS:          0
cpu0_L1D WRITE        ACCESS:    9918839  HIT:    9498737  MISS:     420102  iACCESS:          0  iHIT:          0  iMISS:          0  dACCESS:    9918839  dHIT:    9498737  dMISS:     420102  itACCESS:          0  itHIT:          0  itMISS:          0  dtACCESS:          0  dtHIT:          0  dtMISS:          0
cpu0_L1D TRANSLATION  ACCESS:     199206  HIT:      12861  MISS:     186345  iACCESS:          0  iHIT:          0  iMISS:          0  dACCESS:          0  dHIT:          0  dMISS:          0  itACCESS:      12070  itHIT:       1063  itMISS:      11007  dtACCESS:     187136  dtHIT:      11798  dtMISS:     175338
cpu0_L1D PREFETCH  REQUESTED:   21063408  ISSUED:   17206828  CROSSED:          0  USEFUL:     277874  USELESS:     727903
cpu0_L1D AVERAGE iMISS LATENCY: 0 cycles
cpu0_L1D AVERAGE dMISS LATENCY: 21.3198 cycles
cpu0_L1D AVERAGE itMISS LATENCY: 0.175915 cycles
cpu0_L1D AVERAGE dtMISS LATENCY: 1.604 cycles
cpu0_L1D PAGE CROSSINGS (TLB HIT):         0 
cpu0_L1D PAGE CROSSINGS (TLB MISS):         0 
cpu0_L1D AVERAGE MISS LATENCY: 23.0997 cycles
cpu0_L2C TOTAL       ACCESS:    7544909  HIT:    2827795  MISS:    4717114  iACCESS:    2994488  iHIT:    1321036  iMISS:    1673452  dACCESS:    4373946  dHIT:    1390435  dMISS:    2983511  itACCESS:      11005  itHIT:       3523  itMISS:       7482  dtACCESS:     165470  dtHIT:     112801  dtMISS:      52669
cpu0_L2C LOAD         ACCESS:    2679886  HIT:     910810  MISS:    1769076  iACCESS:     717804  iHIT:     285299  iMISS:     432505  dACCESS:    1962082  dHIT:     625511  dMISS:    1336571  itACCESS:          0  itHIT:          0  itMISS:          0  dtACCESS:          0  dtHIT:          0  dtMISS:          0
cpu0_L2C RFO          ACCESS:     158742  HIT:      46223  MISS:     112519  iACCESS:          0  iHIT:          0  iMISS:          0  dACCESS:     158742  dHIT:      46223  dMISS:     112519  itACCESS:          0  itHIT:          0  itMISS:          0  dtACCESS:          0  dtHIT:          0  dtMISS:          0
cpu0_L2C PREFETCH     ACCESS:    4272780  HIT:    1640764  MISS:    2632016  iACCESS:    2276684  iHIT:    1035737  iMISS:    1240947  dACCESS:    1996096  dHIT:     605027  dMISS:    1391069  itACCESS:          0  itHIT:          0  itMISS:          0  dtACCESS:          0  dtHIT:          0  dtMISS:          0
cpu0_L2C WRITE        ACCESS:     257026  HIT:     113674  MISS:     143352  iACCESS:          0  iHIT:          0  iMISS:          0  dACCESS:     257026  dHIT:     113674  dMISS:     143352  itACCESS:          0  itHIT:          0  itMISS:          0  dtACCESS:          0  dtHIT:          0  dtMISS:          0
cpu0_L2C TRANSLATION  ACCESS:     176475  HIT:     116324  MISS:      60151  iACCESS:          0  iHIT:          0  iMISS:          0  dACCESS:          0  dHIT:          0  dMISS:          0  itACCESS:      11005  itHIT:       3523  itMISS:       7482  dtACCESS:     165470  dtHIT:     112801  dtMISS:      52669
cpu0_L2C PREFETCH  REQUESTED:    1215905  ISSUED:    1215905  CROSSED:          0  USEFUL:     308969  USELESS:     299258
cpu0_L2C AVERAGE iMISS LATENCY: 11.9135 cycles
cpu0_L2C AVERAGE dMISS LATENCY: 25.3818 cycles
cpu0_L2C AVERAGE itMISS LATENCY: 0.190901 cycles
cpu0_L2C AVERAGE dtMISS LATENCY: 1.61815 cycles
cpu0_L2C PAGE CROSSINGS (TLB HIT):         0 
cpu0_L2C PAGE CROSSINGS (TLB MISS):         0 
cpu0_L2C AVERAGE MISS LATENCY: 39.1043 cycles
LLC TOTAL       ACCESS:    4664423  HIT:    4053992  MISS:     610431  iACCESS:    1632306  iHIT:    1468901  iMISS:     163405  dACCESS:    2971966  dHIT:    2567371  dMISS:     404595  itACCESS:       7482  itHIT:       3167  itMISS:       4315  dtACCESS:      52669  dtHIT:      14553  dtMISS:      38116
LLC LOAD         ACCESS:    1767062  HIT:    1629447  MISS:     137615  iACCESS:     431422  iHIT:     397066  iMISS:      34356  dACCESS:    1335640  dHIT:    1232381  dMISS:     103259  itACCESS:          0  itHIT:          0  itMISS:          0  dtACCESS:          0  dtHIT:          0  dtMISS:          0
LLC RFO          ACCESS:     112513  HIT:      82215  MISS:      30298  iACCESS:          0  iHIT:          0  iMISS:          0  dACCESS:     112513  dHIT:      82215  dMISS:      30298  itACCESS:          0  itHIT:          0  itMISS:          0  dtACCESS:          0  dtHIT:          0  dtMISS:          0
LLC PREFETCH     ACCESS:    2543755  HIT:    2145559  MISS:     398196  iACCESS:    1200884  iHIT:    1071835  iMISS:     129049  dACCESS:    1342871  dHIT:    1073724  dMISS:     269147  itACCESS:          0  itHIT:          0  itMISS:          0  dtACCESS:          0  dtHIT:          0  dtMISS:          0
LLC WRITE        ACCESS:     180942  HIT:     179051  MISS:       1891  iACCESS:          0  iHIT:          0  iMISS:          0  dACCESS:     180942  dHIT:     179051  dMISS:       1891  itACCESS:          0  itHIT:          0  itMISS:          0  dtACCESS:          0  dtHIT:          0  dtMISS:          0
LLC TRANSLATION  ACCESS:      60151  HIT:      17720  MISS:      42431  iACCESS:          0  iHIT:          0  iMISS:          0  dACCESS:          0  dHIT:          0  dMISS:          0  itACCESS:       7482  itHIT:       3167  itMISS:       4315  dtACCESS:      52669  dtHIT:      14553  dtMISS:      38116
LLC PREFETCH  REQUESTED:          0  ISSUED:          0  CROSSED:          0  USEFUL:          0  USELESS:          0
LLC AVERAGE iMISS LATENCY: 40.4946 cycles
LLC AVERAGE dMISS LATENCY: 107.746 cycles
LLC AVERAGE itMISS LATENCY: 1.23575 cycles
LLC AVERAGE dtMISS LATENCY: 10.8064 cycles
LLC PAGE CROSSINGS (TLB HIT):         0 
LLC PAGE CROSSINGS (TLB MISS):         0 
LLC AVERAGE MISS LATENCY: 160.282 cycles

PageTableWalker TOTAL       ACCESS:      62057  
PageTableWalker AVERAGE LATENCY: 4.91763 cycles
PageTableWalker TOTAL LATENCY: 305173 cycles

DRAM Statistics
Channel 0
 RQ ROW_BUFFER_HIT:     155335
  ROW_BUFFER_MISS:     452514
 AVG DBUS CONGESTED CYCLE:    3.63486
 WQ ROW_BUFFER_HIT:      15306
  ROW_BUFFER_MISS:      24393  FULL:          0

