last_page:0x200000000000000
VMEM_RES_CAP:0x100000
PAGE_SIZE:4096
LOG2_PAGE_SIZE:12
LOG2_PAGE_TABLE_SIZE:9
page_table_levels:5
WARNING: physical memory size is smaller than virtual memory size
FDiP enabled with aggresivity 16

*** ChampSim Multicore Out-of-Order Simulator ***

Warmup Instructions: 50000000
Simulation Instructions: 100000000
Number of CPUs: 1
Small page size: 4096
Large page size: 2097152

CPU 0 Bimodal branch predictor
Basic BTB sets: 1024 ways: 8 indirect buffer size: 4096 RAS size: 64
Instruction page size distrubution: 0
Loading instruction page size distribution from /home/bsc/bsc018186/scratch/itp_asplos25_AE/dump/srv349_ap.pdst
Data page size distrubution: 0
Loading data page size distribution from /home/bsc/bsc018186/scratch/itp_asplos25_AE/dump/srv349_ap.pdst
cpu0_L2C IP-based stride prefetcher
cpu0_L2C is using PTP replacement policy:
	TLB_STRESS_THRESHOLD:0
	PTE_EVICTION_RATIO:0
cpu0_L1D next line prefetcher
CHiRPing...
cpu0_L1I next line prefetcher
Off-chip DRAM Size: 4 GiB Channels: 1 Width: 64-bit Data Rate: 3200 MT/s
Heartbeat CPU 0 instructions: 10000003 cycles: 2501841 heartbeat IPC: 3.99706 cumulative IPC: 3.99706 (Simulation time: 0 hr 0 min 38 sec) 
Heartbeat CPU 0 instructions: 20000001 cycles: 5001842 heartbeat IPC: 4 cumulative IPC: 3.99853 (Simulation time: 0 hr 1 min 18 sec) 
Heartbeat CPU 0 instructions: 30000002 cycles: 7501874 heartbeat IPC: 3.99995 cumulative IPC: 3.99901 (Simulation time: 0 hr 1 min 59 sec) 
Heartbeat CPU 0 instructions: 40000002 cycles: 10001876 heartbeat IPC: 4 cumulative IPC: 3.99925 (Simulation time: 0 hr 2 min 39 sec) 
Heartbeat CPU 0 instructions: 50000002 cycles: 12501993 heartbeat IPC: 3.99982 cumulative IPC: 3.99937 (Simulation time: 0 hr 3 min 20 sec) 
Warmup finished CPU 0 instructions: 50000002 cycles: 12501994 cumulative IPC: 3.99937 (Simulation time: 0 hr 3 min 20 sec) 

Warmup complete CPU 0 instructions: 50000002 cycles: 12501994 (Simulation time: 0 hr 3 min 20 sec) 

Heartbeat CPU 0 instructions: 60000004 cycles: 26615805 heartbeat IPC: 0.708526 cumulative IPC: 0.708526 (Simulation time: 0 hr 4 min 24 sec) 
Heartbeat CPU 0 instructions: 70000002 cycles: 41026150 heartbeat IPC: 0.693946 cumulative IPC: 0.701161 (Simulation time: 0 hr 5 min 28 sec) 
Heartbeat CPU 0 instructions: 80000002 cycles: 54948454 heartbeat IPC: 0.718272 cumulative IPC: 0.706773 (Simulation time: 0 hr 6 min 31 sec) 
Heartbeat CPU 0 instructions: 90000000 cycles: 69093788 heartbeat IPC: 0.706947 cumulative IPC: 0.706817 (Simulation time: 0 hr 7 min 35 sec) 
Heartbeat CPU 0 instructions: 100000002 cycles: 82738027 heartbeat IPC: 0.732911 cumulative IPC: 0.711886 (Simulation time: 0 hr 8 min 38 sec) 
*** Reached end of trace: /gpfs/projects/bsc18/MN4/bsc18/romol/ChampSim/traces/qualcomm_srv/srv349_ap.champsimtrace.xz
Heartbeat CPU 0 instructions: 110000004 cycles: 96730416 heartbeat IPC: 0.714675 cumulative IPC: 0.712349 (Simulation time: 0 hr 9 min 42 sec) 
Heartbeat CPU 0 instructions: 120000001 cycles: 110178765 heartbeat IPC: 0.743586 cumulative IPC: 0.71665 (Simulation time: 0 hr 10 min 45 sec) 
Heartbeat CPU 0 instructions: 130000000 cycles: 123927490 heartbeat IPC: 0.727341 cumulative IPC: 0.717969 (Simulation time: 0 hr 11 min 46 sec) 
Heartbeat CPU 0 instructions: 140000002 cycles: 137430188 heartbeat IPC: 0.740593 cumulative IPC: 0.720414 (Simulation time: 0 hr 12 min 47 sec) 
Heartbeat CPU 0 instructions: 150000001 cycles: 151944474 heartbeat IPC: 0.688977 cumulative IPC: 0.717142 (Simulation time: 0 hr 13 min 48 sec) 
Simulation finished CPU 0 instructions: 100000003 cycles: 139442490 cumulative IPC: 0.717142 (Simulation time: 0 hr 13 min 48 sec) 

Simulation complete CPU 0 instructions: 100000003 cycles: 139442490 (Simulation time: 0 hr 13 min 48 sec) 


ChampSim completed all CPUs

Saving instructions large page distribution to /home/bsc/bsc018186/scratch/itp_asplos25_AE/dump/srv349_ap.pdst...
Saving data large page distribution to /home/bsc/bsc018186/scratch/itp_asplos25_AE/dump/srv349_ap.pdst...
=== Simulation ===
CPU 0 runs /gpfs/projects/bsc18/MN4/bsc18/romol/ChampSim/traces/qualcomm_srv/srv349_ap.champsimtrace.xz

Region of Interest Statistics

CPU 0 cumulative IPC: 0.717142 instructions: 100000003 cycles: 139442490
CPU 0 Branch Prediction Accuracy: 83.4067% MPKI: 29.7997 Average ROB Occupancy at Mispredict: 12.4798
Branch type MPKI
BRANCH_DIRECT_JUMP: 0.9582
BRANCH_INDIRECT: 15.4322
BRANCH_CONDITIONAL: 9.74969
BRANCH_DIRECT_CALL: 1.83067
BRANCH_INDIRECT_CALL: 0.49843
BRANCH_RETURN: 1.33048

Instructions large pages: 0
Instructions small pages: 10052
Large page distribution for instructions: 0%

Data large pages: 0
Data small pages: 9108
Large page distribution for data: 0%

cpu0_L1I TOTAL       ACCESS:   35080698  HIT:   26505603  MISS:    8575095  iACCESS:   35080698  iHIT:   26505603  iMISS:    8575095  dACCESS:          0  dHIT:          0  dMISS:          0  itACCESS:          0  itHIT:          0  itMISS:          0  dtACCESS:          0  dtHIT:          0  dtMISS:          0
cpu0_L1I LOAD         ACCESS:   10217835  HIT:    7812347  MISS:    2405488  iACCESS:   10217835  iHIT:    7812347  iMISS:    2405488  dACCESS:          0  dHIT:          0  dMISS:          0  itACCESS:          0  itHIT:          0  itMISS:          0  dtACCESS:          0  dtHIT:          0  dtMISS:          0
cpu0_L1I RFO          ACCESS:          0  HIT:          0  MISS:          0  iACCESS:          0  iHIT:          0  iMISS:          0  dACCESS:          0  dHIT:          0  dMISS:          0  itACCESS:          0  itHIT:          0  itMISS:          0  dtACCESS:          0  dtHIT:          0  dtMISS:          0
cpu0_L1I PREFETCH     ACCESS:   24862863  HIT:   18693256  MISS:    6169607  iACCESS:   24862863  iHIT:   18693256  iMISS:    6169607  dACCESS:          0  dHIT:          0  dMISS:          0  itACCESS:          0  itHIT:          0  itMISS:          0  dtACCESS:          0  dtHIT:          0  dtMISS:          0
cpu0_L1I WRITE        ACCESS:          0  HIT:          0  MISS:          0  iACCESS:          0  iHIT:          0  iMISS:          0  dACCESS:          0  dHIT:          0  dMISS:          0  itACCESS:          0  itHIT:          0  itMISS:          0  dtACCESS:          0  dtHIT:          0  dtMISS:          0
cpu0_L1I TRANSLATION  ACCESS:          0  HIT:          0  MISS:          0  iACCESS:          0  iHIT:          0  iMISS:          0  dACCESS:          0  dHIT:          0  dMISS:          0  itACCESS:          0  itHIT:          0  itMISS:          0  dtACCESS:          0  dtHIT:          0  dtMISS:          0
cpu0_L1I PREFETCH  REQUESTED:   27102730  ISSUED:   27098084  CROSSED:          0  USEFUL:    1929274  USELESS:     635442
cpu0_L1I AVERAGE iMISS LATENCY: 13.5341 cycles
cpu0_L1I AVERAGE dMISS LATENCY: 0 cycles
cpu0_L1I AVERAGE itMISS LATENCY: 0 cycles
cpu0_L1I AVERAGE dtMISS LATENCY: 0 cycles
cpu0_L1I PAGE CROSSINGS (TLB HIT):         0 
cpu0_L1I PAGE CROSSINGS (TLB MISS):         0 
cpu0_L1I AVERAGE MISS LATENCY: 13.5341 cycles
cpu0_ITLB TOTAL       ACCESS:   29004474  HIT:   27012306  MISS:    1992168  iACCESS:   29004474  iHIT:   27012306  iMISS:    1992168  dACCESS:          0  dHIT:          0  dMISS:          0  itACCESS:          0  itHIT:          0  itMISS:          0  dtACCESS:          0  dtHIT:          0  dtMISS:          0
cpu0_ITLB LOAD         ACCESS:   29004474  HIT:   27012306  MISS:    1992168  iACCESS:   29004474  iHIT:   27012306  iMISS:    1992168  dACCESS:          0  dHIT:          0  dMISS:          0  itACCESS:          0  itHIT:          0  itMISS:          0  dtACCESS:          0  dtHIT:          0  dtMISS:          0
cpu0_ITLB RFO          ACCESS:          0  HIT:          0  MISS:          0  iACCESS:          0  iHIT:          0  iMISS:          0  dACCESS:          0  dHIT:          0  dMISS:          0  itACCESS:          0  itHIT:          0  itMISS:          0  dtACCESS:          0  dtHIT:          0  dtMISS:          0
cpu0_ITLB PREFETCH     ACCESS:          0  HIT:          0  MISS:          0  iACCESS:          0  iHIT:          0  iMISS:          0  dACCESS:          0  dHIT:          0  dMISS:          0  itACCESS:          0  itHIT:          0  itMISS:          0  dtACCESS:          0  dtHIT:          0  dtMISS:          0
cpu0_ITLB WRITE        ACCESS:          0  HIT:          0  MISS:          0  iACCESS:          0  iHIT:          0  iMISS:          0  dACCESS:          0  dHIT:          0  dMISS:          0  itACCESS:          0  itHIT:          0  itMISS:          0  dtACCESS:          0  dtHIT:          0  dtMISS:          0
cpu0_ITLB TRANSLATION  ACCESS:          0  HIT:          0  MISS:          0  iACCESS:          0  iHIT:          0  iMISS:          0  dACCESS:          0  dHIT:          0  dMISS:          0  itACCESS:          0  itHIT:          0  itMISS:          0  dtACCESS:          0  dtHIT:          0  dtMISS:          0
cpu0_ITLB PREFETCH  REQUESTED:          0  ISSUED:          0  CROSSED:          0  USEFUL:     325015  USELESS:      62908
cpu0_ITLB AVERAGE iMISS LATENCY: 2.70746 cycles
cpu0_ITLB AVERAGE dMISS LATENCY: 0 cycles
cpu0_ITLB AVERAGE itMISS LATENCY: 0 cycles
cpu0_ITLB AVERAGE dtMISS LATENCY: 0 cycles
cpu0_ITLB PAGE CROSSINGS (TLB HIT):         0 
cpu0_ITLB PAGE CROSSINGS (TLB MISS):         0 
cpu0_ITLB AVERAGE MISS LATENCY: 2.70746 cycles
cpu0_DTLB TOTAL       ACCESS:   27731120  HIT:   25646756  MISS:    2084364  iACCESS:          0  iHIT:          0  iMISS:          0  dACCESS:   27731120  dHIT:   25646756  dMISS:    2084364  itACCESS:          0  itHIT:          0  itMISS:          0  dtACCESS:          0  dtHIT:          0  dtMISS:          0
cpu0_DTLB LOAD         ACCESS:   27731120  HIT:   25646756  MISS:    2084364  iACCESS:          0  iHIT:          0  iMISS:          0  dACCESS:   27731120  dHIT:   25646756  dMISS:    2084364  itACCESS:          0  itHIT:          0  itMISS:          0  dtACCESS:          0  dtHIT:          0  dtMISS:          0
cpu0_DTLB RFO          ACCESS:          0  HIT:          0  MISS:          0  iACCESS:          0  iHIT:          0  iMISS:          0  dACCESS:          0  dHIT:          0  dMISS:          0  itACCESS:          0  itHIT:          0  itMISS:          0  dtACCESS:          0  dtHIT:          0  dtMISS:          0
cpu0_DTLB PREFETCH     ACCESS:          0  HIT:          0  MISS:          0  iACCESS:          0  iHIT:          0  iMISS:          0  dACCESS:          0  dHIT:          0  dMISS:          0  itACCESS:          0  itHIT:          0  itMISS:          0  dtACCESS:          0  dtHIT:          0  dtMISS:          0
cpu0_DTLB WRITE        ACCESS:          0  HIT:          0  MISS:          0  iACCESS:          0  iHIT:          0  iMISS:          0  dACCESS:          0  dHIT:          0  dMISS:          0  itACCESS:          0  itHIT:          0  itMISS:          0  dtACCESS:          0  dtHIT:          0  dtMISS:          0
cpu0_DTLB TRANSLATION  ACCESS:          0  HIT:          0  MISS:          0  iACCESS:          0  iHIT:          0  iMISS:          0  dACCESS:          0  dHIT:          0  dMISS:          0  itACCESS:          0  itHIT:          0  itMISS:          0  dtACCESS:          0  dtHIT:          0  dtMISS:          0
cpu0_DTLB PREFETCH  REQUESTED:          0  ISSUED:          0  CROSSED:          0  USEFUL:          0  USELESS:          0
cpu0_DTLB AVERAGE iMISS LATENCY: 0 cycles
cpu0_DTLB AVERAGE dMISS LATENCY: 8.37935 cycles
cpu0_DTLB AVERAGE itMISS LATENCY: 0 cycles
cpu0_DTLB AVERAGE dtMISS LATENCY: 0 cycles
cpu0_DTLB PAGE CROSSINGS (TLB HIT):         0 
cpu0_DTLB PAGE CROSSINGS (TLB MISS):         0 
cpu0_DTLB AVERAGE MISS LATENCY: 8.37935 cycles
cpu0_STLB TOTAL       ACCESS:    1628276  HIT:    1465420  MISS:     162856  iACCESS:     387949  iHIT:     330796  iMISS:      57153  dACCESS:    1240327  dHIT:    1134624  dMISS:     105703  itACCESS:          0  itHIT:          0  itMISS:          0  dtACCESS:          0  dtHIT:          0  dtMISS:          0
cpu0_STLB LOAD         ACCESS:    1628276  HIT:    1465420  MISS:     162856  iACCESS:     387949  iHIT:     330796  iMISS:      57153  dACCESS:    1240327  dHIT:    1134624  dMISS:     105703  itACCESS:          0  itHIT:          0  itMISS:          0  dtACCESS:          0  dtHIT:          0  dtMISS:          0
cpu0_STLB RFO          ACCESS:          0  HIT:          0  MISS:          0  iACCESS:          0  iHIT:          0  iMISS:          0  dACCESS:          0  dHIT:          0  dMISS:          0  itACCESS:          0  itHIT:          0  itMISS:          0  dtACCESS:          0  dtHIT:          0  dtMISS:          0
cpu0_STLB PREFETCH     ACCESS:          0  HIT:          0  MISS:          0  iACCESS:          0  iHIT:          0  iMISS:          0  dACCESS:          0  dHIT:          0  dMISS:          0  itACCESS:          0  itHIT:          0  itMISS:          0  dtACCESS:          0  dtHIT:          0  dtMISS:          0
cpu0_STLB WRITE        ACCESS:          0  HIT:          0  MISS:          0  iACCESS:          0  iHIT:          0  iMISS:          0  dACCESS:          0  dHIT:          0  dMISS:          0  itACCESS:          0  itHIT:          0  itMISS:          0  dtACCESS:          0  dtHIT:          0  dtMISS:          0
cpu0_STLB TRANSLATION  ACCESS:          0  HIT:          0  MISS:          0  iACCESS:          0  iHIT:          0  iMISS:          0  dACCESS:          0  dHIT:          0  dMISS:          0  itACCESS:          0  itHIT:          0  itMISS:          0  dtACCESS:          0  dtHIT:          0  dtMISS:          0
cpu0_STLB PREFETCH  REQUESTED:          0  ISSUED:          0  CROSSED:          0  USEFUL:          0  USELESS:          0
cpu0_STLB AVERAGE iMISS LATENCY: 14.3187 cycles
cpu0_STLB AVERAGE dMISS LATENCY: 46.5845 cycles
cpu0_STLB AVERAGE itMISS LATENCY: 0 cycles
cpu0_STLB AVERAGE dtMISS LATENCY: 0 cycles
cpu0_STLB PAGE CROSSINGS (TLB HIT):         0 
cpu0_STLB PAGE CROSSINGS (TLB MISS):         0 
cpu0_STLB AVERAGE MISS LATENCY: 60.9031 cycles
cpu0_L1D TOTAL       ACCESS:   41631479  HIT:   37958252  MISS:    3673227  iACCESS:          0  iHIT:          0  iMISS:          0  dACCESS:   41405451  dHIT:   37938565  dMISS:    3466886  itACCESS:      61934  itHIT:       8959  itMISS:      52975  dtACCESS:     164094  dtHIT:      10728  dtMISS:     153366
cpu0_L1D LOAD         ACCESS:   18979418  HIT:   17402321  MISS:    1577097  iACCESS:          0  iHIT:          0  iMISS:          0  dACCESS:   18979418  dHIT:   17402321  dMISS:    1577097  itACCESS:          0  itHIT:          0  itMISS:          0  dtACCESS:          0  dtHIT:          0  dtMISS:          0
cpu0_L1D RFO          ACCESS:          0  HIT:          0  MISS:          0  iACCESS:          0  iHIT:          0  iMISS:          0  dACCESS:          0  dHIT:          0  dMISS:          0  itACCESS:          0  itHIT:          0  itMISS:          0  dtACCESS:          0  dtHIT:          0  dtMISS:          0
cpu0_L1D PREFETCH     ACCESS:   12259524  HIT:   10830081  MISS:    1429443  iACCESS:          0  iHIT:          0  iMISS:          0  dACCESS:   12259524  dHIT:   10830081  dMISS:    1429443  itACCESS:          0  itHIT:          0  itMISS:          0  dtACCESS:          0  dtHIT:          0  dtMISS:          0
cpu0_L1D WRITE        ACCESS:   10166509  HIT:    9706163  MISS:     460346  iACCESS:          0  iHIT:          0  iMISS:          0  dACCESS:   10166509  dHIT:    9706163  dMISS:     460346  itACCESS:          0  itHIT:          0  itMISS:          0  dtACCESS:          0  dtHIT:          0  dtMISS:          0
cpu0_L1D TRANSLATION  ACCESS:     226028  HIT:      19687  MISS:     206341  iACCESS:          0  iHIT:          0  iMISS:          0  dACCESS:          0  dHIT:          0  dMISS:          0  itACCESS:      61934  itHIT:       8959  itMISS:      52975  dtACCESS:     164094  dtHIT:      10728  dtMISS:     153366
cpu0_L1D PREFETCH  REQUESTED:   18979418  ISSUED:   17086667  CROSSED:          0  USEFUL:     308965  USELESS:     707382
cpu0_L1D AVERAGE iMISS LATENCY: 0 cycles
cpu0_L1D AVERAGE dMISS LATENCY: 33.7841 cycles
cpu0_L1D AVERAGE itMISS LATENCY: 0.499802 cycles
cpu0_L1D AVERAGE dtMISS LATENCY: 1.46634 cycles
cpu0_L1D PAGE CROSSINGS (TLB HIT):         0 
cpu0_L1D PAGE CROSSINGS (TLB MISS):         0 
cpu0_L1D AVERAGE MISS LATENCY: 35.7502 cycles
cpu0_L2C TOTAL       ACCESS:    7021926  HIT:    1262002  MISS:    5759924  iACCESS:    3320546  iHIT:     732313  iMISS:    2588233  dACCESS:    3509278  dHIT:     371434  dMISS:    3137844  itACCESS:      52975  itHIT:      43960  itMISS:       9015  dtACCESS:     139127  dtHIT:     114295  dtMISS:      24832
cpu0_L2C LOAD         ACCESS:    1735719  HIT:     156361  MISS:    1579358  iACCESS:     794073  iHIT:     117455  iMISS:     676618  dACCESS:     941646  dHIT:      38906  dMISS:     902740  itACCESS:          0  itHIT:          0  itMISS:          0  dtACCESS:          0  dtHIT:          0  dtMISS:          0
cpu0_L2C RFO          ACCESS:     157484  HIT:       7039  MISS:     150445  iACCESS:          0  iHIT:          0  iMISS:          0  dACCESS:     157484  dHIT:       7039  dMISS:     150445  itACCESS:          0  itHIT:          0  itMISS:          0  dtACCESS:          0  dtHIT:          0  dtMISS:          0
cpu0_L2C PREFETCH     ACCESS:    4650352  HIT:     883376  MISS:    3766976  iACCESS:    2526473  iHIT:     614858  iMISS:    1911615  dACCESS:    2123879  dHIT:     268518  dMISS:    1855361  itACCESS:          0  itHIT:          0  itMISS:          0  dtACCESS:          0  dtHIT:          0  dtMISS:          0
cpu0_L2C WRITE        ACCESS:     286269  HIT:      56971  MISS:     229298  iACCESS:          0  iHIT:          0  iMISS:          0  dACCESS:     286269  dHIT:      56971  dMISS:     229298  itACCESS:          0  itHIT:          0  itMISS:          0  dtACCESS:          0  dtHIT:          0  dtMISS:          0
cpu0_L2C TRANSLATION  ACCESS:     192102  HIT:     158255  MISS:      33847  iACCESS:          0  iHIT:          0  iMISS:          0  dACCESS:          0  dHIT:          0  dMISS:          0  itACCESS:      52975  itHIT:      43960  itMISS:       9015  dtACCESS:     139127  dtHIT:     114295  dtMISS:      24832
cpu0_L2C PREFETCH  REQUESTED:    1393239  ISSUED:    1393239  CROSSED:          0  USEFUL:     423908  USELESS:     395292
cpu0_L2C AVERAGE iMISS LATENCY: 14.7853 cycles
cpu0_L2C AVERAGE dMISS LATENCY: 24.7564 cycles
cpu0_L2C AVERAGE itMISS LATENCY: 0.234201 cycles
cpu0_L2C AVERAGE dtMISS LATENCY: 0.712193 cycles
cpu0_L2C PAGE CROSSINGS (TLB HIT):         0 
cpu0_L2C PAGE CROSSINGS (TLB MISS):         0 
cpu0_L2C AVERAGE MISS LATENCY: 40.4881 cycles
LLC TOTAL       ACCESS:    5680132  HIT:    4866977  MISS:     813155  iACCESS:    2529948  iHIT:    2282798  iMISS:     247150  dACCESS:    3116337  dHIT:    2577128  dMISS:     539209  itACCESS:       9015  itHIT:       2304  itMISS:       6711  dtACCESS:      24832  dtHIT:       4747  dtMISS:      20085
LLC LOAD         ACCESS:    1576360  HIT:    1386427  MISS:     189933  iACCESS:     674674  iHIT:     623508  iMISS:      51166  dACCESS:     901686  dHIT:     762919  dMISS:     138767  itACCESS:          0  itHIT:          0  itMISS:          0  dtACCESS:          0  dtHIT:          0  dtMISS:          0
LLC RFO          ACCESS:     150441  HIT:     108491  MISS:      41950  iACCESS:          0  iHIT:          0  iMISS:          0  dACCESS:     150441  dHIT:     108491  dMISS:      41950  itACCESS:          0  itHIT:          0  itMISS:          0  dtACCESS:          0  dtHIT:          0  dtMISS:          0
LLC PREFETCH     ACCESS:    3656450  HIT:    3101975  MISS:     554475  iACCESS:    1855274  iHIT:    1659290  iMISS:     195984  dACCESS:    1801176  dHIT:    1442685  dMISS:     358491  itACCESS:          0  itHIT:          0  itMISS:          0  dtACCESS:          0  dtHIT:          0  dtMISS:          0
LLC WRITE        ACCESS:     263034  HIT:     263033  MISS:          1  iACCESS:          0  iHIT:          0  iMISS:          0  dACCESS:     263034  dHIT:     263033  dMISS:          1  itACCESS:          0  itHIT:          0  itMISS:          0  dtACCESS:          0  dtHIT:          0  dtMISS:          0
LLC TRANSLATION  ACCESS:      33847  HIT:       7051  MISS:      26796  iACCESS:          0  iHIT:          0  iMISS:          0  dACCESS:          0  dHIT:          0  dMISS:          0  itACCESS:       9015  itHIT:       2304  itMISS:       6711  dtACCESS:      24832  dtHIT:       4747  dtMISS:      20085
LLC PREFETCH  REQUESTED:          0  ISSUED:          0  CROSSED:          0  USEFUL:          0  USELESS:          0
LLC AVERAGE iMISS LATENCY: 44.6634 cycles
LLC AVERAGE dMISS LATENCY: 107.693 cycles
LLC AVERAGE itMISS LATENCY: 1.4407 cycles
LLC AVERAGE dtMISS LATENCY: 4.44283 cycles
LLC PAGE CROSSINGS (TLB HIT):         0 
LLC PAGE CROSSINGS (TLB MISS):         0 
LLC AVERAGE MISS LATENCY: 158.24 cycles

PageTableWalker TOTAL       ACCESS:      81925  
PageTableWalker AVERAGE LATENCY: 4.12405 cycles
PageTableWalker TOTAL LATENCY: 337862 cycles

DRAM Statistics
Channel 0
 RQ ROW_BUFFER_HIT:     230305
  ROW_BUFFER_MISS:     582240
 AVG DBUS CONGESTED CYCLE:    3.62726
 WQ ROW_BUFFER_HIT:      21491
  ROW_BUFFER_MISS:      31015  FULL:          0

