last_page:0x200000000000000
VMEM_RES_CAP:0x100000
PAGE_SIZE:4096
LOG2_PAGE_SIZE:12
LOG2_PAGE_TABLE_SIZE:9
page_table_levels:5
WARNING: physical memory size is smaller than virtual memory size
FDiP enabled with aggresivity 16

*** ChampSim Multicore Out-of-Order Simulator ***

Warmup Instructions: 50000000
Simulation Instructions: 100000000
Number of CPUs: 1
Small page size: 4096
Large page size: 2097152

CPU 0 Bimodal branch predictor
Basic BTB sets: 1024 ways: 8 indirect buffer size: 4096 RAS size: 64
Instruction page size distrubution: 0
Loading instruction page size distribution from /home/bsc/bsc018186/scratch/itp_asplos25_AE/dump/srv468_ap.pdst
Data page size distrubution: 0
Loading data page size distribution from /home/bsc/bsc018186/scratch/itp_asplos25_AE/dump/srv468_ap.pdst
cpu0_L2C IP-based stride prefetcher
cpu0_L1D next line prefetcher
cpu0_STLB using iTP with max lru@8
cpu0_STLB using iTP with instr@0 and data@2
Init sat counter with 3 bits (max:50).
cpu0_L1I next line prefetcher
Off-chip DRAM Size: 4 GiB Channels: 1 Width: 64-bit Data Rate: 3200 MT/s
Heartbeat CPU 0 instructions: 10000001 cycles: 2500331 heartbeat IPC: 3.99948 cumulative IPC: 3.99948 (Simulation time: 0 hr 0 min 37 sec) 
Heartbeat CPU 0 instructions: 20000000 cycles: 5000358 heartbeat IPC: 3.99996 cumulative IPC: 3.99972 (Simulation time: 0 hr 1 min 16 sec) 
Heartbeat CPU 0 instructions: 30000000 cycles: 7500414 heartbeat IPC: 3.99992 cumulative IPC: 3.99978 (Simulation time: 0 hr 1 min 56 sec) 
Heartbeat CPU 0 instructions: 40000000 cycles: 10000479 heartbeat IPC: 3.9999 cumulative IPC: 3.99981 (Simulation time: 0 hr 2 min 36 sec) 
Heartbeat CPU 0 instructions: 50000001 cycles: 12500548 heartbeat IPC: 3.9999 cumulative IPC: 3.99983 (Simulation time: 0 hr 3 min 16 sec) 
Warmup finished CPU 0 instructions: 50000001 cycles: 12500549 cumulative IPC: 3.99983 (Simulation time: 0 hr 3 min 16 sec) 

Warmup complete CPU 0 instructions: 50000001 cycles: 12500549 (Simulation time: 0 hr 3 min 16 sec) 

Heartbeat CPU 0 instructions: 60000002 cycles: 26909871 heartbeat IPC: 0.693996 cumulative IPC: 0.693996 (Simulation time: 0 hr 4 min 20 sec) 
Heartbeat CPU 0 instructions: 70000000 cycles: 41069030 heartbeat IPC: 0.706257 cumulative IPC: 0.700073 (Simulation time: 0 hr 5 min 23 sec) 
Heartbeat CPU 0 instructions: 80000004 cycles: 54813381 heartbeat IPC: 0.727572 cumulative IPC: 0.709005 (Simulation time: 0 hr 6 min 25 sec) 
Heartbeat CPU 0 instructions: 90000000 cycles: 69134093 heartbeat IPC: 0.69829 cumulative IPC: 0.706296 (Simulation time: 0 hr 7 min 30 sec) 
Heartbeat CPU 0 instructions: 100000000 cycles: 82958433 heartbeat IPC: 0.723362 cumulative IPC: 0.709644 (Simulation time: 0 hr 8 min 33 sec) 
*** Reached end of trace: /gpfs/projects/bsc18/MN4/bsc18/romol/ChampSim/traces/qualcomm_srv/srv468_ap.champsimtrace.xz
Heartbeat CPU 0 instructions: 110000000 cycles: 97600439 heartbeat IPC: 0.682967 cumulative IPC: 0.705054 (Simulation time: 0 hr 9 min 37 sec) 
Heartbeat CPU 0 instructions: 120000003 cycles: 112002638 heartbeat IPC: 0.694339 cumulative IPC: 0.703503 (Simulation time: 0 hr 10 min 41 sec) 
Heartbeat CPU 0 instructions: 130000000 cycles: 125871290 heartbeat IPC: 0.721051 cumulative IPC: 0.70565 (Simulation time: 0 hr 11 min 43 sec) 
Heartbeat CPU 0 instructions: 140000000 cycles: 139561301 heartbeat IPC: 0.73046 cumulative IPC: 0.708323 (Simulation time: 0 hr 12 min 46 sec) 
Heartbeat CPU 0 instructions: 150000004 cycles: 153653940 heartbeat IPC: 0.709591 cumulative IPC: 0.70845 (Simulation time: 0 hr 13 min 49 sec) 
Simulation finished CPU 0 instructions: 100000003 cycles: 141153392 cumulative IPC: 0.70845 (Simulation time: 0 hr 13 min 49 sec) 

Simulation complete CPU 0 instructions: 100000003 cycles: 141153392 (Simulation time: 0 hr 13 min 49 sec) 


ChampSim completed all CPUs

Saving instructions large page distribution to /home/bsc/bsc018186/scratch/itp_asplos25_AE/dump/srv468_ap.pdst...
Saving data large page distribution to /home/bsc/bsc018186/scratch/itp_asplos25_AE/dump/srv468_ap.pdst...
=== Simulation ===
CPU 0 runs /gpfs/projects/bsc18/MN4/bsc18/romol/ChampSim/traces/qualcomm_srv/srv468_ap.champsimtrace.xz

Region of Interest Statistics

CPU 0 cumulative IPC: 0.70845 instructions: 100000003 cycles: 141153392
CPU 0 Branch Prediction Accuracy: 83.3864% MPKI: 29.8164 Average ROB Occupancy at Mispredict: 12.2963
Branch type MPKI
BRANCH_DIRECT_JUMP: 0.95201
BRANCH_INDIRECT: 15.4911
BRANCH_CONDITIONAL: 9.74446
BRANCH_DIRECT_CALL: 1.80948
BRANCH_INDIRECT_CALL: 0.49331
BRANCH_RETURN: 1.32613

Instructions large pages: 0
Instructions small pages: 896
Large page distribution for instructions: 0%

Data large pages: 0
Data small pages: 9391
Large page distribution for data: 0%

cpu0_L1I TOTAL       ACCESS:   34972622  HIT:   26483767  MISS:    8488855  iACCESS:   34972622  iHIT:   26483767  iMISS:    8488855  dACCESS:          0  dHIT:          0  dMISS:          0  itACCESS:          0  itHIT:          0  itMISS:          0  dtACCESS:          0  dtHIT:          0  dtMISS:          0
cpu0_L1I LOAD         ACCESS:   10183437  HIT:    7801804  MISS:    2381633  iACCESS:   10183437  iHIT:    7801804  iMISS:    2381633  dACCESS:          0  dHIT:          0  dMISS:          0  itACCESS:          0  itHIT:          0  itMISS:          0  dtACCESS:          0  dtHIT:          0  dtMISS:          0
cpu0_L1I RFO          ACCESS:          0  HIT:          0  MISS:          0  iACCESS:          0  iHIT:          0  iMISS:          0  dACCESS:          0  dHIT:          0  dMISS:          0  itACCESS:          0  itHIT:          0  itMISS:          0  dtACCESS:          0  dtHIT:          0  dtMISS:          0
cpu0_L1I PREFETCH     ACCESS:   24789185  HIT:   18681963  MISS:    6107222  iACCESS:   24789185  iHIT:   18681963  iMISS:    6107222  dACCESS:          0  dHIT:          0  dMISS:          0  itACCESS:          0  itHIT:          0  itMISS:          0  dtACCESS:          0  dtHIT:          0  dtMISS:          0
cpu0_L1I WRITE        ACCESS:          0  HIT:          0  MISS:          0  iACCESS:          0  iHIT:          0  iMISS:          0  dACCESS:          0  dHIT:          0  dMISS:          0  itACCESS:          0  itHIT:          0  itMISS:          0  dtACCESS:          0  dtHIT:          0  dtMISS:          0
cpu0_L1I TRANSLATION  ACCESS:          0  HIT:          0  MISS:          0  iACCESS:          0  iHIT:          0  iMISS:          0  dACCESS:          0  dHIT:          0  dMISS:          0  itACCESS:          0  itHIT:          0  itMISS:          0  dtACCESS:          0  dtHIT:          0  dtMISS:          0
cpu0_L1I PREFETCH  REQUESTED:   27072673  ISSUED:   27071528  CROSSED:          0  USEFUL:    1939642  USELESS:     637685
cpu0_L1I AVERAGE iMISS LATENCY: 13.5287 cycles
cpu0_L1I AVERAGE dMISS LATENCY: 0 cycles
cpu0_L1I AVERAGE itMISS LATENCY: 0 cycles
cpu0_L1I AVERAGE dtMISS LATENCY: 0 cycles
cpu0_L1I PAGE CROSSINGS (TLB HIT):         0 
cpu0_L1I PAGE CROSSINGS (TLB MISS):         0 
cpu0_L1I AVERAGE MISS LATENCY: 13.5287 cycles
cpu0_ITLB TOTAL       ACCESS:   28997700  HIT:   27010742  MISS:    1986958  iACCESS:   28997700  iHIT:   27010742  iMISS:    1986958  dACCESS:          0  dHIT:          0  dMISS:          0  itACCESS:          0  itHIT:          0  itMISS:          0  dtACCESS:          0  dtHIT:          0  dtMISS:          0
cpu0_ITLB LOAD         ACCESS:   28997700  HIT:   27010742  MISS:    1986958  iACCESS:   28997700  iHIT:   27010742  iMISS:    1986958  dACCESS:          0  dHIT:          0  dMISS:          0  itACCESS:          0  itHIT:          0  itMISS:          0  dtACCESS:          0  dtHIT:          0  dtMISS:          0
cpu0_ITLB RFO          ACCESS:          0  HIT:          0  MISS:          0  iACCESS:          0  iHIT:          0  iMISS:          0  dACCESS:          0  dHIT:          0  dMISS:          0  itACCESS:          0  itHIT:          0  itMISS:          0  dtACCESS:          0  dtHIT:          0  dtMISS:          0
cpu0_ITLB PREFETCH     ACCESS:          0  HIT:          0  MISS:          0  iACCESS:          0  iHIT:          0  iMISS:          0  dACCESS:          0  dHIT:          0  dMISS:          0  itACCESS:          0  itHIT:          0  itMISS:          0  dtACCESS:          0  dtHIT:          0  dtMISS:          0
cpu0_ITLB WRITE        ACCESS:          0  HIT:          0  MISS:          0  iACCESS:          0  iHIT:          0  iMISS:          0  dACCESS:          0  dHIT:          0  dMISS:          0  itACCESS:          0  itHIT:          0  itMISS:          0  dtACCESS:          0  dtHIT:          0  dtMISS:          0
cpu0_ITLB TRANSLATION  ACCESS:          0  HIT:          0  MISS:          0  iACCESS:          0  iHIT:          0  iMISS:          0  dACCESS:          0  dHIT:          0  dMISS:          0  itACCESS:          0  itHIT:          0  itMISS:          0  dtACCESS:          0  dtHIT:          0  dtMISS:          0
cpu0_ITLB PREFETCH  REQUESTED:          0  ISSUED:          0  CROSSED:          0  USEFUL:     326729  USELESS:      62192
cpu0_ITLB AVERAGE iMISS LATENCY: 1.82373 cycles
cpu0_ITLB AVERAGE dMISS LATENCY: 0 cycles
cpu0_ITLB AVERAGE itMISS LATENCY: 0 cycles
cpu0_ITLB AVERAGE dtMISS LATENCY: 0 cycles
cpu0_ITLB PAGE CROSSINGS (TLB HIT):         0 
cpu0_ITLB PAGE CROSSINGS (TLB MISS):         0 
cpu0_ITLB AVERAGE MISS LATENCY: 1.82373 cycles
cpu0_DTLB TOTAL       ACCESS:   27754962  HIT:   25653488  MISS:    2101474  iACCESS:          0  iHIT:          0  iMISS:          0  dACCESS:   27754962  dHIT:   25653488  dMISS:    2101474  itACCESS:          0  itHIT:          0  itMISS:          0  dtACCESS:          0  dtHIT:          0  dtMISS:          0
cpu0_DTLB LOAD         ACCESS:   27754962  HIT:   25653488  MISS:    2101474  iACCESS:          0  iHIT:          0  iMISS:          0  dACCESS:   27754962  dHIT:   25653488  dMISS:    2101474  itACCESS:          0  itHIT:          0  itMISS:          0  dtACCESS:          0  dtHIT:          0  dtMISS:          0
cpu0_DTLB RFO          ACCESS:          0  HIT:          0  MISS:          0  iACCESS:          0  iHIT:          0  iMISS:          0  dACCESS:          0  dHIT:          0  dMISS:          0  itACCESS:          0  itHIT:          0  itMISS:          0  dtACCESS:          0  dtHIT:          0  dtMISS:          0
cpu0_DTLB PREFETCH     ACCESS:          0  HIT:          0  MISS:          0  iACCESS:          0  iHIT:          0  iMISS:          0  dACCESS:          0  dHIT:          0  dMISS:          0  itACCESS:          0  itHIT:          0  itMISS:          0  dtACCESS:          0  dtHIT:          0  dtMISS:          0
cpu0_DTLB WRITE        ACCESS:          0  HIT:          0  MISS:          0  iACCESS:          0  iHIT:          0  iMISS:          0  dACCESS:          0  dHIT:          0  dMISS:          0  itACCESS:          0  itHIT:          0  itMISS:          0  dtACCESS:          0  dtHIT:          0  dtMISS:          0
cpu0_DTLB TRANSLATION  ACCESS:          0  HIT:          0  MISS:          0  iACCESS:          0  iHIT:          0  iMISS:          0  dACCESS:          0  dHIT:          0  dMISS:          0  itACCESS:          0  itHIT:          0  itMISS:          0  dtACCESS:          0  dtHIT:          0  dtMISS:          0
cpu0_DTLB PREFETCH  REQUESTED:          0  ISSUED:          0  CROSSED:          0  USEFUL:          0  USELESS:          0
cpu0_DTLB AVERAGE iMISS LATENCY: 0 cycles
cpu0_DTLB AVERAGE dMISS LATENCY: 10.699 cycles
cpu0_DTLB AVERAGE itMISS LATENCY: 0 cycles
cpu0_DTLB AVERAGE dtMISS LATENCY: 0 cycles
cpu0_DTLB PAGE CROSSINGS (TLB HIT):         0 
cpu0_DTLB PAGE CROSSINGS (TLB MISS):         0 
cpu0_DTLB AVERAGE MISS LATENCY: 10.699 cycles
cpu0_STLB TOTAL       ACCESS:    1633674  HIT:    1500497  MISS:     133177  iACCESS:     388965  iHIT:     382209  iMISS:       6756  dACCESS:    1244709  dHIT:    1118288  dMISS:     126421  itACCESS:          0  itHIT:          0  itMISS:          0  dtACCESS:          0  dtHIT:          0  dtMISS:          0
cpu0_STLB LOAD         ACCESS:    1633674  HIT:    1500497  MISS:     133177  iACCESS:     388965  iHIT:     382209  iMISS:       6756  dACCESS:    1244709  dHIT:    1118288  dMISS:     126421  itACCESS:          0  itHIT:          0  itMISS:          0  dtACCESS:          0  dtHIT:          0  dtMISS:          0
cpu0_STLB RFO          ACCESS:          0  HIT:          0  MISS:          0  iACCESS:          0  iHIT:          0  iMISS:          0  dACCESS:          0  dHIT:          0  dMISS:          0  itACCESS:          0  itHIT:          0  itMISS:          0  dtACCESS:          0  dtHIT:          0  dtMISS:          0
cpu0_STLB PREFETCH     ACCESS:          0  HIT:          0  MISS:          0  iACCESS:          0  iHIT:          0  iMISS:          0  dACCESS:          0  dHIT:          0  dMISS:          0  itACCESS:          0  itHIT:          0  itMISS:          0  dtACCESS:          0  dtHIT:          0  dtMISS:          0
cpu0_STLB WRITE        ACCESS:          0  HIT:          0  MISS:          0  iACCESS:          0  iHIT:          0  iMISS:          0  dACCESS:          0  dHIT:          0  dMISS:          0  itACCESS:          0  itHIT:          0  itMISS:          0  dtACCESS:          0  dtHIT:          0  dtMISS:          0
cpu0_STLB TRANSLATION  ACCESS:          0  HIT:          0  MISS:          0  iACCESS:          0  iHIT:          0  iMISS:          0  dACCESS:          0  dHIT:          0  dMISS:          0  itACCESS:          0  itHIT:          0  itMISS:          0  dtACCESS:          0  dtHIT:          0  dtMISS:          0
cpu0_STLB PREFETCH  REQUESTED:          0  ISSUED:          0  CROSSED:          0  USEFUL:          0  USELESS:          0
cpu0_STLB AVERAGE iMISS LATENCY: 4.58024 cycles
cpu0_STLB AVERAGE dMISS LATENCY: 94.2477 cycles
cpu0_STLB AVERAGE itMISS LATENCY: 0 cycles
cpu0_STLB AVERAGE dtMISS LATENCY: 0 cycles
cpu0_STLB PAGE CROSSINGS (TLB HIT):         0 
cpu0_STLB PAGE CROSSINGS (TLB MISS):         0 
cpu0_STLB AVERAGE MISS LATENCY: 98.8279 cycles
cpu0_L1D TOTAL       ACCESS:   41532227  HIT:   38027158  MISS:    3505069  iACCESS:          0  iHIT:          0  iMISS:          0  dACCESS:   41330818  dHIT:   38014346  dMISS:    3316472  itACCESS:       7888  itHIT:        774  itMISS:       7114  dtACCESS:     193521  dtHIT:      12038  dtMISS:     181483
cpu0_L1D LOAD         ACCESS:   18964546  HIT:   17450329  MISS:    1514217  iACCESS:          0  iHIT:          0  iMISS:          0  dACCESS:   18964546  dHIT:   17450329  dMISS:    1514217  itACCESS:          0  itHIT:          0  itMISS:          0  dtACCESS:          0  dtHIT:          0  dtMISS:          0
cpu0_L1D RFO          ACCESS:          0  HIT:          0  MISS:          0  iACCESS:          0  iHIT:          0  iMISS:          0  dACCESS:          0  dHIT:          0  dMISS:          0  itACCESS:          0  itHIT:          0  itMISS:          0  dtACCESS:          0  dtHIT:          0  dtMISS:          0
cpu0_L1D PREFETCH     ACCESS:   12241289  HIT:   10860057  MISS:    1381232  iACCESS:          0  iHIT:          0  iMISS:          0  dACCESS:   12241289  dHIT:   10860057  dMISS:    1381232  itACCESS:          0  itHIT:          0  itMISS:          0  dtACCESS:          0  dtHIT:          0  dtMISS:          0
cpu0_L1D WRITE        ACCESS:   10124983  HIT:    9703960  MISS:     421023  iACCESS:          0  iHIT:          0  iMISS:          0  dACCESS:   10124983  dHIT:    9703960  dMISS:     421023  itACCESS:          0  itHIT:          0  itMISS:          0  dtACCESS:          0  dtHIT:          0  dtMISS:          0
cpu0_L1D TRANSLATION  ACCESS:     201409  HIT:      12812  MISS:     188597  iACCESS:          0  iHIT:          0  iMISS:          0  dACCESS:          0  dHIT:          0  dMISS:          0  itACCESS:       7888  itHIT:        774  itMISS:       7114  dtACCESS:     193521  dtHIT:      12038  dtMISS:     181483
cpu0_L1D PREFETCH  REQUESTED:   18964546  ISSUED:   17092379  CROSSED:          0  USEFUL:     310819  USELESS:     707904
cpu0_L1D AVERAGE iMISS LATENCY: 0 cycles
cpu0_L1D AVERAGE dMISS LATENCY: 33.715 cycles
cpu0_L1D AVERAGE itMISS LATENCY: 0.153211 cycles
cpu0_L1D AVERAGE dtMISS LATENCY: 2.85834 cycles
cpu0_L1D PAGE CROSSINGS (TLB HIT):         0 
cpu0_L1D PAGE CROSSINGS (TLB MISS):         0 
cpu0_L1D AVERAGE MISS LATENCY: 36.7265 cycles
cpu0_L2C TOTAL       ACCESS:    7012249  HIT:    1678764  MISS:    5333485  iACCESS:    3332488  iHIT:     871724  iMISS:    2460764  dACCESS:    3504741  dHIT:     712716  dMISS:    2792025  itACCESS:       7108  itHIT:       3911  itMISS:       3197  dtACCESS:     167912  dtHIT:      90413  dtMISS:      77499
cpu0_L2C LOAD         ACCESS:    1734084  HIT:     308081  MISS:    1426003  iACCESS:     793980  iHIT:     152214  iMISS:     641766  dACCESS:     940104  dHIT:     155867  dMISS:     784237  itACCESS:          0  itHIT:          0  itMISS:          0  dtACCESS:          0  dtHIT:          0  dtMISS:          0
cpu0_L2C RFO          ACCESS:     155354  HIT:      52711  MISS:     102643  iACCESS:          0  iHIT:          0  iMISS:          0  dACCESS:     155354  dHIT:      52711  dMISS:     102643  itACCESS:          0  itHIT:          0  itMISS:          0  dtACCESS:          0  dtHIT:          0  dtMISS:          0
cpu0_L2C PREFETCH     ACCESS:    4662222  HIT:    1082126  MISS:    3580096  iACCESS:    2538508  iHIT:     719510  iMISS:    1818998  dACCESS:    2123714  dHIT:     362616  dMISS:    1761098  itACCESS:          0  itHIT:          0  itMISS:          0  dtACCESS:          0  dtHIT:          0  dtMISS:          0
cpu0_L2C WRITE        ACCESS:     285569  HIT:     141522  MISS:     144047  iACCESS:          0  iHIT:          0  iMISS:          0  dACCESS:     285569  dHIT:     141522  dMISS:     144047  itACCESS:          0  itHIT:          0  itMISS:          0  dtACCESS:          0  dtHIT:          0  dtMISS:          0
cpu0_L2C TRANSLATION  ACCESS:     175020  HIT:      94324  MISS:      80696  iACCESS:          0  iHIT:          0  iMISS:          0  dACCESS:          0  dHIT:          0  dMISS:          0  itACCESS:       7108  itHIT:       3911  itMISS:       3197  dtACCESS:     167912  dtHIT:      90413  dtMISS:      77499
cpu0_L2C PREFETCH  REQUESTED:    1390831  ISSUED:    1390831  CROSSED:          0  USEFUL:     399905  USELESS:     387441
cpu0_L2C AVERAGE iMISS LATENCY: 15.762 cycles
cpu0_L2C AVERAGE dMISS LATENCY: 25.7535 cycles
cpu0_L2C AVERAGE itMISS LATENCY: 0.088061 cycles
cpu0_L2C AVERAGE dtMISS LATENCY: 1.5788 cycles
cpu0_L2C PAGE CROSSINGS (TLB HIT):         0 
cpu0_L2C PAGE CROSSINGS (TLB MISS):         0 
cpu0_L2C AVERAGE MISS LATENCY: 43.1823 cycles
LLC TOTAL       ACCESS:    5211663  HIT:    4362046  MISS:     849617  iACCESS:    2402111  iHIT:    2140022  iMISS:     262089  dACCESS:    2728856  dHIT:    2182391  dMISS:     546465  itACCESS:       3197  itHIT:        859  itMISS:       2338  dtACCESS:      77499  dtHIT:      38774  dtMISS:      38725
LLC LOAD         ACCESS:    1423842  HIT:    1235549  MISS:     188293  iACCESS:     640033  iHIT:     584873  iMISS:      55160  dACCESS:     783809  dHIT:     650676  dMISS:     133133  itACCESS:          0  itHIT:          0  itMISS:          0  dtACCESS:          0  dtHIT:          0  dtMISS:          0
LLC RFO          ACCESS:     102638  HIT:      69105  MISS:      33533  iACCESS:          0  iHIT:          0  iMISS:          0  dACCESS:     102638  dHIT:      69105  dMISS:      33533  itACCESS:          0  itHIT:          0  itMISS:          0  dtACCESS:          0  dtHIT:          0  dtMISS:          0
LLC PREFETCH     ACCESS:    3469982  HIT:    2892357  MISS:     577625  iACCESS:    1762078  iHIT:    1555149  iMISS:     206929  dACCESS:    1707904  dHIT:    1337208  dMISS:     370696  itACCESS:          0  itHIT:          0  itMISS:          0  dtACCESS:          0  dtHIT:          0  dtMISS:          0
LLC WRITE        ACCESS:     134505  HIT:     125402  MISS:       9103  iACCESS:          0  iHIT:          0  iMISS:          0  dACCESS:     134505  dHIT:     125402  dMISS:       9103  itACCESS:          0  itHIT:          0  itMISS:          0  dtACCESS:          0  dtHIT:          0  dtMISS:          0
LLC TRANSLATION  ACCESS:      80696  HIT:      39633  MISS:      41063  iACCESS:          0  iHIT:          0  iMISS:          0  dACCESS:          0  dHIT:          0  dMISS:          0  itACCESS:       3197  itHIT:        859  itMISS:       2338  dtACCESS:      77499  dtHIT:      38774  dtMISS:      38725
LLC PREFETCH  REQUESTED:          0  ISSUED:          0  CROSSED:          0  USEFUL:          0  USELESS:          0
LLC AVERAGE iMISS LATENCY: 44.352 cycles
LLC AVERAGE dMISS LATENCY: 102.727 cycles
LLC AVERAGE itMISS LATENCY: 0.47877 cycles
LLC AVERAGE dtMISS LATENCY: 8.13302 cycles
LLC PAGE CROSSINGS (TLB HIT):         0 
LLC PAGE CROSSINGS (TLB MISS):         0 
LLC AVERAGE MISS LATENCY: 155.691 cycles

PageTableWalker TOTAL       ACCESS:      66694  
PageTableWalker AVERAGE LATENCY: 4.97643 cycles
PageTableWalker TOTAL LATENCY: 331898 cycles

DRAM Statistics
Channel 0
 RQ ROW_BUFFER_HIT:     245057
  ROW_BUFFER_MISS:     595443
 AVG DBUS CONGESTED CYCLE:    3.62257
 WQ ROW_BUFFER_HIT:      15367
  ROW_BUFFER_MISS:      20107  FULL:          0

