last_page:0x200000000000000
VMEM_RES_CAP:0x100000
PAGE_SIZE:4096
LOG2_PAGE_SIZE:12
LOG2_PAGE_TABLE_SIZE:9
page_table_levels:5
WARNING: physical memory size is smaller than virtual memory size
FDiP enabled with aggresivity 16

*** ChampSim Multicore Out-of-Order Simulator ***

Warmup Instructions: 50000000
Simulation Instructions: 100000000
Number of CPUs: 1
Small page size: 4096
Large page size: 2097152

CPU 0 Bimodal branch predictor
Basic BTB sets: 1024 ways: 8 indirect buffer size: 4096 RAS size: 64
Instruction page size distrubution: 0
Loading instruction page size distribution from /home/bsc/bsc018186/scratch/itp_asplos25_AE/dump/srv442_ap.pdst
Data page size distrubution: 0
Loading data page size distribution from /home/bsc/bsc018186/scratch/itp_asplos25_AE/dump/srv442_ap.pdst
cpu0_L2C IP-based stride prefetcher
cpu0_L1D next line prefetcher
CHiRPing...
cpu0_L1I next line prefetcher
Off-chip DRAM Size: 4 GiB Channels: 1 Width: 64-bit Data Rate: 3200 MT/s
Heartbeat CPU 0 instructions: 10000003 cycles: 2500181 heartbeat IPC: 3.99972 cumulative IPC: 3.99972 (Simulation time: 0 hr 0 min 40 sec) 
Heartbeat CPU 0 instructions: 20000003 cycles: 5000209 heartbeat IPC: 3.99996 cumulative IPC: 3.99984 (Simulation time: 0 hr 1 min 21 sec) 
Heartbeat CPU 0 instructions: 30000002 cycles: 7500214 heartbeat IPC: 4 cumulative IPC: 3.99989 (Simulation time: 0 hr 2 min 3 sec) 
Heartbeat CPU 0 instructions: 40000002 cycles: 10000294 heartbeat IPC: 3.99988 cumulative IPC: 3.99989 (Simulation time: 0 hr 2 min 45 sec) 
Heartbeat CPU 0 instructions: 50000002 cycles: 12500294 heartbeat IPC: 4 cumulative IPC: 3.99991 (Simulation time: 0 hr 3 min 27 sec) 
Warmup finished CPU 0 instructions: 50000002 cycles: 12500295 cumulative IPC: 3.99991 (Simulation time: 0 hr 3 min 27 sec) 

Warmup complete CPU 0 instructions: 50000002 cycles: 12500295 (Simulation time: 0 hr 3 min 27 sec) 

Heartbeat CPU 0 instructions: 60000002 cycles: 31565970 heartbeat IPC: 0.524503 cumulative IPC: 0.524503 (Simulation time: 0 hr 4 min 38 sec) 
Heartbeat CPU 0 instructions: 70000004 cycles: 50482417 heartbeat IPC: 0.528641 cumulative IPC: 0.526564 (Simulation time: 0 hr 5 min 50 sec) 
Heartbeat CPU 0 instructions: 80000002 cycles: 68699771 heartbeat IPC: 0.548928 cumulative IPC: 0.533813 (Simulation time: 0 hr 7 min 0 sec) 
Heartbeat CPU 0 instructions: 90000000 cycles: 86643709 heartbeat IPC: 0.557292 cumulative IPC: 0.539495 (Simulation time: 0 hr 8 min 10 sec) 
Heartbeat CPU 0 instructions: 100000000 cycles: 104676333 heartbeat IPC: 0.554551 cumulative IPC: 0.542441 (Simulation time: 0 hr 9 min 20 sec) 
*** Reached end of trace: /gpfs/projects/bsc18/MN4/bsc18/romol/ChampSim/traces/qualcomm_srv/srv442_ap.champsimtrace.xz
Heartbeat CPU 0 instructions: 110000001 cycles: 122958642 heartbeat IPC: 0.546977 cumulative IPC: 0.543192 (Simulation time: 0 hr 10 min 30 sec) 
Heartbeat CPU 0 instructions: 120000004 cycles: 141023847 heartbeat IPC: 0.553551 cumulative IPC: 0.544648 (Simulation time: 0 hr 11 min 40 sec) 
Heartbeat CPU 0 instructions: 130000004 cycles: 159303703 heartbeat IPC: 0.547051 cumulative IPC: 0.544947 (Simulation time: 0 hr 12 min 51 sec) 
Heartbeat CPU 0 instructions: 140000002 cycles: 178126414 heartbeat IPC: 0.531273 cumulative IPC: 0.543393 (Simulation time: 0 hr 14 min 2 sec) 
Heartbeat CPU 0 instructions: 150000000 cycles: 195703533 heartbeat IPC: 0.568922 cumulative IPC: 0.545842 (Simulation time: 0 hr 15 min 12 sec) 
Simulation finished CPU 0 instructions: 100000000 cycles: 183203240 cumulative IPC: 0.545842 (Simulation time: 0 hr 15 min 12 sec) 

Simulation complete CPU 0 instructions: 100000000 cycles: 183203240 (Simulation time: 0 hr 15 min 12 sec) 


ChampSim completed all CPUs

Saving instructions large page distribution to /home/bsc/bsc018186/scratch/itp_asplos25_AE/dump/srv442_ap.pdst...
Saving data large page distribution to /home/bsc/bsc018186/scratch/itp_asplos25_AE/dump/srv442_ap.pdst...
=== Simulation ===
CPU 0 runs /gpfs/projects/bsc18/MN4/bsc18/romol/ChampSim/traces/qualcomm_srv/srv442_ap.champsimtrace.xz

Region of Interest Statistics

CPU 0 cumulative IPC: 0.545842 instructions: 100000000 cycles: 183203240
CPU 0 Branch Prediction Accuracy: 79.7214% MPKI: 36.634 Average ROB Occupancy at Mispredict: 10.1539
Branch type MPKI
BRANCH_DIRECT_JUMP: 1.39274
BRANCH_INDIRECT: 18.323
BRANCH_CONDITIONAL: 11.8127
BRANCH_DIRECT_CALL: 2.62396
BRANCH_INDIRECT_CALL: 0.679551
BRANCH_RETURN: 1.80207

Instructions large pages: 0
Instructions small pages: 1142
Large page distribution for instructions: 0%

Data large pages: 0
Data small pages: 5076
Large page distribution for data: 0%

cpu0_L1I TOTAL       ACCESS:   36354428  HIT:   27843834  MISS:    8510594  iACCESS:   36354428  iHIT:   27843834  iMISS:    8510594  dACCESS:          0  dHIT:          0  dMISS:          0  itACCESS:          0  itHIT:          0  itMISS:          0  dtACCESS:          0  dtHIT:          0  dtMISS:          0
cpu0_L1I LOAD         ACCESS:   10579499  HIT:    8249095  MISS:    2330404  iACCESS:   10579499  iHIT:    8249095  iMISS:    2330404  dACCESS:          0  dHIT:          0  dMISS:          0  itACCESS:          0  itHIT:          0  itMISS:          0  dtACCESS:          0  dtHIT:          0  dtMISS:          0
cpu0_L1I RFO          ACCESS:          0  HIT:          0  MISS:          0  iACCESS:          0  iHIT:          0  iMISS:          0  dACCESS:          0  dHIT:          0  dMISS:          0  itACCESS:          0  itHIT:          0  itMISS:          0  dtACCESS:          0  dtHIT:          0  dtMISS:          0
cpu0_L1I PREFETCH     ACCESS:   25774929  HIT:   19594739  MISS:    6180190  iACCESS:   25774929  iHIT:   19594739  iMISS:    6180190  dACCESS:          0  dHIT:          0  dMISS:          0  itACCESS:          0  itHIT:          0  itMISS:          0  dtACCESS:          0  dtHIT:          0  dtMISS:          0
cpu0_L1I WRITE        ACCESS:          0  HIT:          0  MISS:          0  iACCESS:          0  iHIT:          0  iMISS:          0  dACCESS:          0  dHIT:          0  dMISS:          0  itACCESS:          0  itHIT:          0  itMISS:          0  dtACCESS:          0  dtHIT:          0  dtMISS:          0
cpu0_L1I TRANSLATION  ACCESS:          0  HIT:          0  MISS:          0  iACCESS:          0  iHIT:          0  iMISS:          0  dACCESS:          0  dHIT:          0  dMISS:          0  itACCESS:          0  itHIT:          0  itMISS:          0  dtACCESS:          0  dtHIT:          0  dtMISS:          0
cpu0_L1I PREFETCH  REQUESTED:   28101386  ISSUED:   28099299  CROSSED:          0  USEFUL:    2038000  USELESS:     665740
cpu0_L1I AVERAGE iMISS LATENCY: 18.0735 cycles
cpu0_L1I AVERAGE dMISS LATENCY: 0 cycles
cpu0_L1I AVERAGE itMISS LATENCY: 0 cycles
cpu0_L1I AVERAGE dtMISS LATENCY: 0 cycles
cpu0_L1I PAGE CROSSINGS (TLB HIT):         0 
cpu0_L1I PAGE CROSSINGS (TLB MISS):         0 
cpu0_L1I AVERAGE MISS LATENCY: 18.0735 cycles
cpu0_ITLB TOTAL       ACCESS:   30386927  HIT:   28417416  MISS:    1969511  iACCESS:   30386927  iHIT:   28417416  iMISS:    1969511  dACCESS:          0  dHIT:          0  dMISS:          0  itACCESS:          0  itHIT:          0  itMISS:          0  dtACCESS:          0  dtHIT:          0  dtMISS:          0
cpu0_ITLB LOAD         ACCESS:   30386927  HIT:   28417416  MISS:    1969511  iACCESS:   30386927  iHIT:   28417416  iMISS:    1969511  dACCESS:          0  dHIT:          0  dMISS:          0  itACCESS:          0  itHIT:          0  itMISS:          0  dtACCESS:          0  dtHIT:          0  dtMISS:          0
cpu0_ITLB RFO          ACCESS:          0  HIT:          0  MISS:          0  iACCESS:          0  iHIT:          0  iMISS:          0  dACCESS:          0  dHIT:          0  dMISS:          0  itACCESS:          0  itHIT:          0  itMISS:          0  dtACCESS:          0  dtHIT:          0  dtMISS:          0
cpu0_ITLB PREFETCH     ACCESS:          0  HIT:          0  MISS:          0  iACCESS:          0  iHIT:          0  iMISS:          0  dACCESS:          0  dHIT:          0  dMISS:          0  itACCESS:          0  itHIT:          0  itMISS:          0  dtACCESS:          0  dtHIT:          0  dtMISS:          0
cpu0_ITLB WRITE        ACCESS:          0  HIT:          0  MISS:          0  iACCESS:          0  iHIT:          0  iMISS:          0  dACCESS:          0  dHIT:          0  dMISS:          0  itACCESS:          0  itHIT:          0  itMISS:          0  dtACCESS:          0  dtHIT:          0  dtMISS:          0
cpu0_ITLB TRANSLATION  ACCESS:          0  HIT:          0  MISS:          0  iACCESS:          0  iHIT:          0  iMISS:          0  dACCESS:          0  dHIT:          0  dMISS:          0  itACCESS:          0  itHIT:          0  itMISS:          0  dtACCESS:          0  dtHIT:          0  dtMISS:          0
cpu0_ITLB PREFETCH  REQUESTED:          0  ISSUED:          0  CROSSED:          0  USEFUL:     333591  USELESS:      67250
cpu0_ITLB AVERAGE iMISS LATENCY: 4.22089 cycles
cpu0_ITLB AVERAGE dMISS LATENCY: 0 cycles
cpu0_ITLB AVERAGE itMISS LATENCY: 0 cycles
cpu0_ITLB AVERAGE dtMISS LATENCY: 0 cycles
cpu0_ITLB PAGE CROSSINGS (TLB HIT):         0 
cpu0_ITLB PAGE CROSSINGS (TLB MISS):         0 
cpu0_ITLB AVERAGE MISS LATENCY: 4.22089 cycles
cpu0_DTLB TOTAL       ACCESS:   27990341  HIT:   26034994  MISS:    1955347  iACCESS:          0  iHIT:          0  iMISS:          0  dACCESS:   27990341  dHIT:   26034994  dMISS:    1955347  itACCESS:          0  itHIT:          0  itMISS:          0  dtACCESS:          0  dtHIT:          0  dtMISS:          0
cpu0_DTLB LOAD         ACCESS:   27990341  HIT:   26034994  MISS:    1955347  iACCESS:          0  iHIT:          0  iMISS:          0  dACCESS:   27990341  dHIT:   26034994  dMISS:    1955347  itACCESS:          0  itHIT:          0  itMISS:          0  dtACCESS:          0  dtHIT:          0  dtMISS:          0
cpu0_DTLB RFO          ACCESS:          0  HIT:          0  MISS:          0  iACCESS:          0  iHIT:          0  iMISS:          0  dACCESS:          0  dHIT:          0  dMISS:          0  itACCESS:          0  itHIT:          0  itMISS:          0  dtACCESS:          0  dtHIT:          0  dtMISS:          0
cpu0_DTLB PREFETCH     ACCESS:          0  HIT:          0  MISS:          0  iACCESS:          0  iHIT:          0  iMISS:          0  dACCESS:          0  dHIT:          0  dMISS:          0  itACCESS:          0  itHIT:          0  itMISS:          0  dtACCESS:          0  dtHIT:          0  dtMISS:          0
cpu0_DTLB WRITE        ACCESS:          0  HIT:          0  MISS:          0  iACCESS:          0  iHIT:          0  iMISS:          0  dACCESS:          0  dHIT:          0  dMISS:          0  itACCESS:          0  itHIT:          0  itMISS:          0  dtACCESS:          0  dtHIT:          0  dtMISS:          0
cpu0_DTLB TRANSLATION  ACCESS:          0  HIT:          0  MISS:          0  iACCESS:          0  iHIT:          0  iMISS:          0  dACCESS:          0  dHIT:          0  dMISS:          0  itACCESS:          0  itHIT:          0  itMISS:          0  dtACCESS:          0  dtHIT:          0  dtMISS:          0
cpu0_DTLB PREFETCH  REQUESTED:          0  ISSUED:          0  CROSSED:          0  USEFUL:          0  USELESS:          0
cpu0_DTLB AVERAGE iMISS LATENCY: 0 cycles
cpu0_DTLB AVERAGE dMISS LATENCY: 11.7327 cycles
cpu0_DTLB AVERAGE itMISS LATENCY: 0 cycles
cpu0_DTLB AVERAGE dtMISS LATENCY: 0 cycles
cpu0_DTLB PAGE CROSSINGS (TLB HIT):         0 
cpu0_DTLB PAGE CROSSINGS (TLB MISS):         0 
cpu0_DTLB AVERAGE MISS LATENCY: 11.7327 cycles
cpu0_STLB TOTAL       ACCESS:    1635780  HIT:    1402302  MISS:     233478  iACCESS:     400859  iHIT:     311355  iMISS:      89504  dACCESS:    1234921  dHIT:    1090947  dMISS:     143974  itACCESS:          0  itHIT:          0  itMISS:          0  dtACCESS:          0  dtHIT:          0  dtMISS:          0
cpu0_STLB LOAD         ACCESS:    1635780  HIT:    1402302  MISS:     233478  iACCESS:     400859  iHIT:     311355  iMISS:      89504  dACCESS:    1234921  dHIT:    1090947  dMISS:     143974  itACCESS:          0  itHIT:          0  itMISS:          0  dtACCESS:          0  dtHIT:          0  dtMISS:          0
cpu0_STLB RFO          ACCESS:          0  HIT:          0  MISS:          0  iACCESS:          0  iHIT:          0  iMISS:          0  dACCESS:          0  dHIT:          0  dMISS:          0  itACCESS:          0  itHIT:          0  itMISS:          0  dtACCESS:          0  dtHIT:          0  dtMISS:          0
cpu0_STLB PREFETCH     ACCESS:          0  HIT:          0  MISS:          0  iACCESS:          0  iHIT:          0  iMISS:          0  dACCESS:          0  dHIT:          0  dMISS:          0  itACCESS:          0  itHIT:          0  itMISS:          0  dtACCESS:          0  dtHIT:          0  dtMISS:          0
cpu0_STLB WRITE        ACCESS:          0  HIT:          0  MISS:          0  iACCESS:          0  iHIT:          0  iMISS:          0  dACCESS:          0  dHIT:          0  dMISS:          0  itACCESS:          0  itHIT:          0  itMISS:          0  dtACCESS:          0  dtHIT:          0  dtMISS:          0
cpu0_STLB TRANSLATION  ACCESS:          0  HIT:          0  MISS:          0  iACCESS:          0  iHIT:          0  iMISS:          0  dACCESS:          0  dHIT:          0  dMISS:          0  itACCESS:          0  itHIT:          0  itMISS:          0  dtACCESS:          0  dtHIT:          0  dtMISS:          0
cpu0_STLB PREFETCH  REQUESTED:          0  ISSUED:          0  CROSSED:          0  USEFUL:          0  USELESS:          0
cpu0_STLB AVERAGE iMISS LATENCY: 21.9288 cycles
cpu0_STLB AVERAGE dMISS LATENCY: 56.0589 cycles
cpu0_STLB AVERAGE itMISS LATENCY: 0 cycles
cpu0_STLB AVERAGE dtMISS LATENCY: 0 cycles
cpu0_STLB PAGE CROSSINGS (TLB HIT):         0 
cpu0_STLB PAGE CROSSINGS (TLB MISS):         0 
cpu0_STLB AVERAGE MISS LATENCY: 77.9877 cycles
cpu0_L1D TOTAL       ACCESS:   42708435  HIT:   38554177  MISS:    4154258  iACCESS:          0  iHIT:          0  iMISS:          0  dACCESS:   42417846  dHIT:   38529980  dMISS:    3887866  itACCESS:      95537  itHIT:      12933  itMISS:      82604  dtACCESS:     195052  dtHIT:      11264  dtMISS:     183788
cpu0_L1D LOAD         ACCESS:   19389974  HIT:   17612545  MISS:    1777429  iACCESS:          0  iHIT:          0  iMISS:          0  dACCESS:   19389974  dHIT:   17612545  dMISS:    1777429  itACCESS:          0  itHIT:          0  itMISS:          0  dtACCESS:          0  dtHIT:          0  dtMISS:          0
cpu0_L1D RFO          ACCESS:          0  HIT:          0  MISS:          0  iACCESS:          0  iHIT:          0  iMISS:          0  dACCESS:          0  dHIT:          0  dMISS:          0  itACCESS:          0  itHIT:          0  itMISS:          0  dtACCESS:          0  dtHIT:          0  dtMISS:          0
cpu0_L1D PREFETCH     ACCESS:   12876625  HIT:   11221761  MISS:    1654864  iACCESS:          0  iHIT:          0  iMISS:          0  dACCESS:   12876625  dHIT:   11221761  dMISS:    1654864  itACCESS:          0  itHIT:          0  itMISS:          0  dtACCESS:          0  dtHIT:          0  dtMISS:          0
cpu0_L1D WRITE        ACCESS:   10151247  HIT:    9695674  MISS:     455573  iACCESS:          0  iHIT:          0  iMISS:          0  dACCESS:   10151247  dHIT:    9695674  dMISS:     455573  itACCESS:          0  itHIT:          0  itMISS:          0  dtACCESS:          0  dtHIT:          0  dtMISS:          0
cpu0_L1D TRANSLATION  ACCESS:     290589  HIT:      24197  MISS:     266392  iACCESS:          0  iHIT:          0  iMISS:          0  dACCESS:          0  dHIT:          0  dMISS:          0  itACCESS:      95537  itHIT:      12933  itMISS:      82604  dtACCESS:     195052  dtHIT:      11264  dtMISS:     183788
cpu0_L1D PREFETCH  REQUESTED:   19389974  ISSUED:   17357496  CROSSED:          0  USEFUL:     314244  USELESS:     715131
cpu0_L1D AVERAGE iMISS LATENCY: 0 cycles
cpu0_L1D AVERAGE dMISS LATENCY: 38.3007 cycles
cpu0_L1D AVERAGE itMISS LATENCY: 1.04401 cycles
cpu0_L1D AVERAGE dtMISS LATENCY: 2.66897 cycles
cpu0_L1D PAGE CROSSINGS (TLB HIT):         0 
cpu0_L1D PAGE CROSSINGS (TLB MISS):         0 
cpu0_L1D AVERAGE MISS LATENCY: 42.0137 cycles
cpu0_L2C TOTAL       ACCESS:    7440194  HIT:    1691503  MISS:    5748691  iACCESS:    3452455  iHIT:     870491  iMISS:    2581964  dACCESS:    3724391  dHIT:     662990  dMISS:    3061401  itACCESS:      82604  itHIT:      55582  itMISS:      27022  dtACCESS:     180744  dtHIT:     102440  dtMISS:      78304
cpu0_L2C LOAD         ACCESS:    1751001  HIT:     271414  MISS:    1479587  iACCESS:     785718  iHIT:     140888  iMISS:     644830  dACCESS:     965283  dHIT:     130526  dMISS:     834757  itACCESS:          0  itHIT:          0  itMISS:          0  dtACCESS:          0  dtHIT:          0  dtMISS:          0
cpu0_L2C RFO          ACCESS:     163399  HIT:      42340  MISS:     121059  iACCESS:          0  iHIT:          0  iMISS:          0  dACCESS:     163399  dHIT:      42340  dMISS:     121059  itACCESS:          0  itHIT:          0  itMISS:          0  dtACCESS:          0  dtHIT:          0  dtMISS:          0
cpu0_L2C PREFETCH     ACCESS:    4986221  HIT:    1098963  MISS:    3887258  iACCESS:    2666737  iHIT:     729603  iMISS:    1937134  dACCESS:    2319484  dHIT:     369360  dMISS:    1950124  itACCESS:          0  itHIT:          0  itMISS:          0  dtACCESS:          0  dtHIT:          0  dtMISS:          0
cpu0_L2C WRITE        ACCESS:     276225  HIT:     120764  MISS:     155461  iACCESS:          0  iHIT:          0  iMISS:          0  dACCESS:     276225  dHIT:     120764  dMISS:     155461  itACCESS:          0  itHIT:          0  itMISS:          0  dtACCESS:          0  dtHIT:          0  dtMISS:          0
cpu0_L2C TRANSLATION  ACCESS:     263348  HIT:     158022  MISS:     105326  iACCESS:          0  iHIT:          0  iMISS:          0  dACCESS:          0  dHIT:          0  dMISS:          0  itACCESS:      82604  itHIT:      55582  itMISS:      27022  dtACCESS:     180744  dtHIT:     102440  dtMISS:      78304
cpu0_L2C PREFETCH  REQUESTED:    1566266  ISSUED:    1566260  CROSSED:          0  USEFUL:     442327  USELESS:     437715
cpu0_L2C AVERAGE iMISS LATENCY: 21.3506 cycles
cpu0_L2C AVERAGE dMISS LATENCY: 34.9591 cycles
cpu0_L2C AVERAGE itMISS LATENCY: 0.620061 cycles
cpu0_L2C AVERAGE dtMISS LATENCY: 1.63095 cycles
cpu0_L2C PAGE CROSSINGS (TLB HIT):         0 
cpu0_L2C PAGE CROSSINGS (TLB MISS):         0 
cpu0_L2C AVERAGE MISS LATENCY: 58.5607 cycles
LLC TOTAL       ACCESS:    5560262  HIT:    4061533  MISS:    1498729  iACCESS:    2503555  iHIT:    1988725  iMISS:     514830  dACCESS:    2951381  dHIT:    2027851  dMISS:     923530  itACCESS:      27022  itHIT:       9504  itMISS:      17518  dtACCESS:      78304  dtHIT:      35453  dtMISS:      42851
LLC LOAD         ACCESS:    1472804  HIT:    1141210  MISS:     331594  iACCESS:     643545  iHIT:     536482  iMISS:     107063  dACCESS:     829259  dHIT:     604728  dMISS:     224531  itACCESS:          0  itHIT:          0  itMISS:          0  dtACCESS:          0  dtHIT:          0  dtMISS:          0
LLC RFO          ACCESS:     121057  HIT:      66810  MISS:      54247  iACCESS:          0  iHIT:          0  iMISS:          0  dACCESS:     121057  dHIT:      66810  dMISS:      54247  itACCESS:          0  itHIT:          0  itMISS:          0  dtACCESS:          0  dtHIT:          0  dtMISS:          0
LLC PREFETCH     ACCESS:    3707574  HIT:    2665695  MISS:    1041879  iACCESS:    1860010  iHIT:    1452243  iMISS:     407767  dACCESS:    1847564  dHIT:    1213452  dMISS:     634112  itACCESS:          0  itHIT:          0  itMISS:          0  dtACCESS:          0  dtHIT:          0  dtMISS:          0
LLC WRITE        ACCESS:     153501  HIT:     142861  MISS:      10640  iACCESS:          0  iHIT:          0  iMISS:          0  dACCESS:     153501  dHIT:     142861  dMISS:      10640  itACCESS:          0  itHIT:          0  itMISS:          0  dtACCESS:          0  dtHIT:          0  dtMISS:          0
LLC TRANSLATION  ACCESS:     105326  HIT:      44957  MISS:      60369  iACCESS:          0  iHIT:          0  iMISS:          0  dACCESS:          0  dHIT:          0  dMISS:          0  itACCESS:      27022  itHIT:       9504  itMISS:      17518  dtACCESS:      78304  dtHIT:      35453  dtMISS:      42851
LLC PREFETCH  REQUESTED:          0  ISSUED:          0  CROSSED:          0  USEFUL:          0  USELESS:          0
LLC AVERAGE iMISS LATENCY: 49.5817 cycles
LLC AVERAGE dMISS LATENCY: 98.8309 cycles
LLC AVERAGE itMISS LATENCY: 2.02474 cycles
LLC AVERAGE dtMISS LATENCY: 5.23613 cycles
LLC PAGE CROSSINGS (TLB HIT):         0 
LLC PAGE CROSSINGS (TLB MISS):         0 
LLC AVERAGE MISS LATENCY: 155.674 cycles

PageTableWalker TOTAL       ACCESS:     116842  
PageTableWalker AVERAGE LATENCY: 4.14367 cycles
PageTableWalker TOTAL LATENCY: 484154 cycles

DRAM Statistics
Channel 0
 RQ ROW_BUFFER_HIT:     453875
  ROW_BUFFER_MISS:    1020208
 AVG DBUS CONGESTED CYCLE:    3.63812
 WQ ROW_BUFFER_HIT:      29885
  ROW_BUFFER_MISS:      24554  FULL:          0

