last_page:0x200000000000000
VMEM_RES_CAP:0x100000
PAGE_SIZE:4096
LOG2_PAGE_SIZE:12
LOG2_PAGE_TABLE_SIZE:9
page_table_levels:5
WARNING: physical memory size is smaller than virtual memory size
FDiP enabled with aggresivity 16

*** ChampSim Multicore Out-of-Order Simulator ***

Warmup Instructions: 50000000
Simulation Instructions: 100000000
Number of CPUs: 1
Small page size: 4096
Large page size: 2097152

CPU 0 Bimodal branch predictor
Basic BTB sets: 1024 ways: 8 indirect buffer size: 4096 RAS size: 64
Instruction page size distrubution: 0
Loading instruction page size distribution from /home/bsc/bsc018186/scratch/itp_asplos25_AE/dump/srv486_ap.pdst
Data page size distrubution: 0
Loading data page size distribution from /home/bsc/bsc018186/scratch/itp_asplos25_AE/dump/srv486_ap.pdst
cpu0_L2C IP-based stride prefetcher
cpu0_L1D next line prefetcher
cpu0_L1I next line prefetcher
Off-chip DRAM Size: 4 GiB Channels: 1 Width: 64-bit Data Rate: 3200 MT/s
Heartbeat CPU 0 instructions: 10000000 cycles: 2500237 heartbeat IPC: 3.99963 cumulative IPC: 3.99963 (Simulation time: 0 hr 0 min 34 sec) 
Heartbeat CPU 0 instructions: 20000001 cycles: 5000305 heartbeat IPC: 3.9999 cumulative IPC: 3.99976 (Simulation time: 0 hr 1 min 10 sec) 
Heartbeat CPU 0 instructions: 30000003 cycles: 7518073 heartbeat IPC: 3.97178 cumulative IPC: 3.99039 (Simulation time: 0 hr 1 min 47 sec) 
Heartbeat CPU 0 instructions: 40000002 cycles: 10018074 heartbeat IPC: 4 cumulative IPC: 3.99279 (Simulation time: 0 hr 2 min 24 sec) 
Heartbeat CPU 0 instructions: 50000000 cycles: 12518141 heartbeat IPC: 3.9999 cumulative IPC: 3.99421 (Simulation time: 0 hr 3 min 1 sec) 
Warmup finished CPU 0 instructions: 50000000 cycles: 12518142 cumulative IPC: 3.99421 (Simulation time: 0 hr 3 min 1 sec) 

Warmup complete CPU 0 instructions: 50000000 cycles: 12518142 (Simulation time: 0 hr 3 min 1 sec) 

Heartbeat CPU 0 instructions: 60000000 cycles: 18831063 heartbeat IPC: 1.58406 cumulative IPC: 1.58406 (Simulation time: 0 hr 3 min 51 sec) 
Heartbeat CPU 0 instructions: 70000000 cycles: 34279053 heartbeat IPC: 0.647334 cumulative IPC: 0.91908 (Simulation time: 0 hr 4 min 51 sec) 
Heartbeat CPU 0 instructions: 80000003 cycles: 49739873 heartbeat IPC: 0.646797 cumulative IPC: 0.805981 (Simulation time: 0 hr 5 min 52 sec) 
Heartbeat CPU 0 instructions: 90000001 cycles: 65990347 heartbeat IPC: 0.615367 cumulative IPC: 0.748053 (Simulation time: 0 hr 6 min 53 sec) 
Heartbeat CPU 0 instructions: 100000004 cycles: 81464064 heartbeat IPC: 0.646258 cumulative IPC: 0.725207 (Simulation time: 0 hr 7 min 54 sec) 
*** Reached end of trace: /gpfs/projects/bsc18/MN4/bsc18/romol/ChampSim/traces/qualcomm_srv/srv486_ap.champsimtrace.xz
Heartbeat CPU 0 instructions: 110000002 cycles: 96617413 heartbeat IPC: 0.65992 cumulative IPC: 0.713443 (Simulation time: 0 hr 8 min 54 sec) 
Heartbeat CPU 0 instructions: 120000004 cycles: 111611978 heartbeat IPC: 0.666909 cumulative IPC: 0.706402 (Simulation time: 0 hr 9 min 54 sec) 
Heartbeat CPU 0 instructions: 130000001 cycles: 129389223 heartbeat IPC: 0.562517 cumulative IPC: 0.684515 (Simulation time: 0 hr 10 min 58 sec) 
Heartbeat CPU 0 instructions: 140000001 cycles: 145074532 heartbeat IPC: 0.63754 cumulative IPC: 0.678957 (Simulation time: 0 hr 12 min 0 sec) 
Heartbeat CPU 0 instructions: 150000003 cycles: 160140207 heartbeat IPC: 0.663761 cumulative IPC: 0.677406 (Simulation time: 0 hr 13 min 0 sec) 
Simulation finished CPU 0 instructions: 100000003 cycles: 147622066 cumulative IPC: 0.677406 (Simulation time: 0 hr 13 min 0 sec) 

Simulation complete CPU 0 instructions: 100000003 cycles: 147622066 (Simulation time: 0 hr 13 min 0 sec) 


ChampSim completed all CPUs

Saving instructions large page distribution to /home/bsc/bsc018186/scratch/itp_asplos25_AE/dump/srv486_ap.pdst...
Saving data large page distribution to /home/bsc/bsc018186/scratch/itp_asplos25_AE/dump/srv486_ap.pdst...
=== Simulation ===
CPU 0 runs /gpfs/projects/bsc18/MN4/bsc18/romol/ChampSim/traces/qualcomm_srv/srv486_ap.champsimtrace.xz

Region of Interest Statistics

CPU 0 cumulative IPC: 0.677406 instructions: 100000003 cycles: 147622066
CPU 0 Branch Prediction Accuracy: 85.0579% MPKI: 28.6718 Average ROB Occupancy at Mispredict: 14.0193
Branch type MPKI
BRANCH_DIRECT_JUMP: 0.93948
BRANCH_INDIRECT: 14.9905
BRANCH_CONDITIONAL: 9.28665
BRANCH_DIRECT_CALL: 1.69553
BRANCH_INDIRECT_CALL: 0.54119
BRANCH_RETURN: 1.21849

Instructions large pages: 0
Instructions small pages: 10903
Large page distribution for instructions: 0%

Data large pages: 0
Data small pages: 9814
Large page distribution for data: 0%

cpu0_L1I TOTAL       ACCESS:   34364012  HIT:   27354902  MISS:    7009110  iACCESS:   34364012  iHIT:   27354902  iMISS:    7009110  dACCESS:          0  dHIT:          0  dMISS:          0  itACCESS:          0  itHIT:          0  itMISS:          0  dtACCESS:          0  dtHIT:          0  dtMISS:          0
cpu0_L1I LOAD         ACCESS:    9295275  HIT:    7326352  MISS:    1968923  iACCESS:    9295275  iHIT:    7326352  iMISS:    1968923  dACCESS:          0  dHIT:          0  dMISS:          0  itACCESS:          0  itHIT:          0  itMISS:          0  dtACCESS:          0  dtHIT:          0  dtMISS:          0
cpu0_L1I RFO          ACCESS:          0  HIT:          0  MISS:          0  iACCESS:          0  iHIT:          0  iMISS:          0  dACCESS:          0  dHIT:          0  dMISS:          0  itACCESS:          0  itHIT:          0  itMISS:          0  dtACCESS:          0  dtHIT:          0  dtMISS:          0
cpu0_L1I PREFETCH     ACCESS:   25068737  HIT:   20028550  MISS:    5040187  iACCESS:   25068737  iHIT:   20028550  iMISS:    5040187  dACCESS:          0  dHIT:          0  dMISS:          0  itACCESS:          0  itHIT:          0  itMISS:          0  dtACCESS:          0  dtHIT:          0  dtMISS:          0
cpu0_L1I WRITE        ACCESS:          0  HIT:          0  MISS:          0  iACCESS:          0  iHIT:          0  iMISS:          0  dACCESS:          0  dHIT:          0  dMISS:          0  itACCESS:          0  itHIT:          0  itMISS:          0  dtACCESS:          0  dtHIT:          0  dtMISS:          0
cpu0_L1I TRANSLATION  ACCESS:          0  HIT:          0  MISS:          0  iACCESS:          0  iHIT:          0  iMISS:          0  dACCESS:          0  dHIT:          0  dMISS:          0  itACCESS:          0  itHIT:          0  itMISS:          0  dtACCESS:          0  dtHIT:          0  dtMISS:          0
cpu0_L1I PREFETCH  REQUESTED:   27320818  ISSUED:   27320214  CROSSED:          0  USEFUL:    1723757  USELESS:     563548
cpu0_L1I AVERAGE iMISS LATENCY: 13.4021 cycles
cpu0_L1I AVERAGE dMISS LATENCY: 0 cycles
cpu0_L1I AVERAGE itMISS LATENCY: 0 cycles
cpu0_L1I AVERAGE dtMISS LATENCY: 0 cycles
cpu0_L1I PAGE CROSSINGS (TLB HIT):         0 
cpu0_L1I PAGE CROSSINGS (TLB MISS):         0 
cpu0_L1I AVERAGE MISS LATENCY: 13.4021 cycles
cpu0_ITLB TOTAL       ACCESS:   28769461  HIT:   27034983  MISS:    1734478  iACCESS:   28769461  iHIT:   27034983  iMISS:    1734478  dACCESS:          0  dHIT:          0  dMISS:          0  itACCESS:          0  itHIT:          0  itMISS:          0  dtACCESS:          0  dtHIT:          0  dtMISS:          0
cpu0_ITLB LOAD         ACCESS:   28769461  HIT:   27034983  MISS:    1734478  iACCESS:   28769461  iHIT:   27034983  iMISS:    1734478  dACCESS:          0  dHIT:          0  dMISS:          0  itACCESS:          0  itHIT:          0  itMISS:          0  dtACCESS:          0  dtHIT:          0  dtMISS:          0
cpu0_ITLB RFO          ACCESS:          0  HIT:          0  MISS:          0  iACCESS:          0  iHIT:          0  iMISS:          0  dACCESS:          0  dHIT:          0  dMISS:          0  itACCESS:          0  itHIT:          0  itMISS:          0  dtACCESS:          0  dtHIT:          0  dtMISS:          0
cpu0_ITLB PREFETCH     ACCESS:          0  HIT:          0  MISS:          0  iACCESS:          0  iHIT:          0  iMISS:          0  dACCESS:          0  dHIT:          0  dMISS:          0  itACCESS:          0  itHIT:          0  itMISS:          0  dtACCESS:          0  dtHIT:          0  dtMISS:          0
cpu0_ITLB WRITE        ACCESS:          0  HIT:          0  MISS:          0  iACCESS:          0  iHIT:          0  iMISS:          0  dACCESS:          0  dHIT:          0  dMISS:          0  itACCESS:          0  itHIT:          0  itMISS:          0  dtACCESS:          0  dtHIT:          0  dtMISS:          0
cpu0_ITLB TRANSLATION  ACCESS:          0  HIT:          0  MISS:          0  iACCESS:          0  iHIT:          0  iMISS:          0  dACCESS:          0  dHIT:          0  dMISS:          0  itACCESS:          0  itHIT:          0  itMISS:          0  dtACCESS:          0  dtHIT:          0  dtMISS:          0
cpu0_ITLB PREFETCH  REQUESTED:          0  ISSUED:          0  CROSSED:          0  USEFUL:     282885  USELESS:      57578
cpu0_ITLB AVERAGE iMISS LATENCY: 5.25029 cycles
cpu0_ITLB AVERAGE dMISS LATENCY: 0 cycles
cpu0_ITLB AVERAGE itMISS LATENCY: 0 cycles
cpu0_ITLB AVERAGE dtMISS LATENCY: 0 cycles
cpu0_ITLB PAGE CROSSINGS (TLB HIT):         0 
cpu0_ITLB PAGE CROSSINGS (TLB MISS):         0 
cpu0_ITLB AVERAGE MISS LATENCY: 5.25029 cycles
cpu0_DTLB TOTAL       ACCESS:   29587015  HIT:   25442555  MISS:    4144460  iACCESS:          0  iHIT:          0  iMISS:          0  dACCESS:   29587015  dHIT:   25442555  dMISS:    4144460  itACCESS:          0  itHIT:          0  itMISS:          0  dtACCESS:          0  dtHIT:          0  dtMISS:          0
cpu0_DTLB LOAD         ACCESS:   29587015  HIT:   25442555  MISS:    4144460  iACCESS:          0  iHIT:          0  iMISS:          0  dACCESS:   29587015  dHIT:   25442555  dMISS:    4144460  itACCESS:          0  itHIT:          0  itMISS:          0  dtACCESS:          0  dtHIT:          0  dtMISS:          0
cpu0_DTLB RFO          ACCESS:          0  HIT:          0  MISS:          0  iACCESS:          0  iHIT:          0  iMISS:          0  dACCESS:          0  dHIT:          0  dMISS:          0  itACCESS:          0  itHIT:          0  itMISS:          0  dtACCESS:          0  dtHIT:          0  dtMISS:          0
cpu0_DTLB PREFETCH     ACCESS:          0  HIT:          0  MISS:          0  iACCESS:          0  iHIT:          0  iMISS:          0  dACCESS:          0  dHIT:          0  dMISS:          0  itACCESS:          0  itHIT:          0  itMISS:          0  dtACCESS:          0  dtHIT:          0  dtMISS:          0
cpu0_DTLB WRITE        ACCESS:          0  HIT:          0  MISS:          0  iACCESS:          0  iHIT:          0  iMISS:          0  dACCESS:          0  dHIT:          0  dMISS:          0  itACCESS:          0  itHIT:          0  itMISS:          0  dtACCESS:          0  dtHIT:          0  dtMISS:          0
cpu0_DTLB TRANSLATION  ACCESS:          0  HIT:          0  MISS:          0  iACCESS:          0  iHIT:          0  iMISS:          0  dACCESS:          0  dHIT:          0  dMISS:          0  itACCESS:          0  itHIT:          0  itMISS:          0  dtACCESS:          0  dtHIT:          0  dtMISS:          0
cpu0_DTLB PREFETCH  REQUESTED:          0  ISSUED:          0  CROSSED:          0  USEFUL:          0  USELESS:          0
cpu0_DTLB AVERAGE iMISS LATENCY: 0 cycles
cpu0_DTLB AVERAGE dMISS LATENCY: 8.88806 cycles
cpu0_DTLB AVERAGE itMISS LATENCY: 0 cycles
cpu0_DTLB AVERAGE dtMISS LATENCY: 0 cycles
cpu0_DTLB PAGE CROSSINGS (TLB HIT):         0 
cpu0_DTLB PAGE CROSSINGS (TLB MISS):         0 
cpu0_DTLB AVERAGE MISS LATENCY: 8.88806 cycles
cpu0_STLB TOTAL       ACCESS:    2533936  HIT:    2382184  MISS:     151752  iACCESS:     340469  iHIT:     287498  iMISS:      52971  dACCESS:    2193467  dHIT:    2094686  dMISS:      98781  itACCESS:          0  itHIT:          0  itMISS:          0  dtACCESS:          0  dtHIT:          0  dtMISS:          0
cpu0_STLB LOAD         ACCESS:    2533936  HIT:    2382184  MISS:     151752  iACCESS:     340469  iHIT:     287498  iMISS:      52971  dACCESS:    2193467  dHIT:    2094686  dMISS:      98781  itACCESS:          0  itHIT:          0  itMISS:          0  dtACCESS:          0  dtHIT:          0  dtMISS:          0
cpu0_STLB RFO          ACCESS:          0  HIT:          0  MISS:          0  iACCESS:          0  iHIT:          0  iMISS:          0  dACCESS:          0  dHIT:          0  dMISS:          0  itACCESS:          0  itHIT:          0  itMISS:          0  dtACCESS:          0  dtHIT:          0  dtMISS:          0
cpu0_STLB PREFETCH     ACCESS:          0  HIT:          0  MISS:          0  iACCESS:          0  iHIT:          0  iMISS:          0  dACCESS:          0  dHIT:          0  dMISS:          0  itACCESS:          0  itHIT:          0  itMISS:          0  dtACCESS:          0  dtHIT:          0  dtMISS:          0
cpu0_STLB WRITE        ACCESS:          0  HIT:          0  MISS:          0  iACCESS:          0  iHIT:          0  iMISS:          0  dACCESS:          0  dHIT:          0  dMISS:          0  itACCESS:          0  itHIT:          0  itMISS:          0  dtACCESS:          0  dtHIT:          0  dtMISS:          0
cpu0_STLB TRANSLATION  ACCESS:          0  HIT:          0  MISS:          0  iACCESS:          0  iHIT:          0  iMISS:          0  dACCESS:          0  dHIT:          0  dMISS:          0  itACCESS:          0  itHIT:          0  itMISS:          0  dtACCESS:          0  dtHIT:          0  dtMISS:          0
cpu0_STLB PREFETCH  REQUESTED:          0  ISSUED:          0  CROSSED:          0  USEFUL:          0  USELESS:          0
cpu0_STLB AVERAGE iMISS LATENCY: 42.2764 cycles
cpu0_STLB AVERAGE dMISS LATENCY: 126.099 cycles
cpu0_STLB AVERAGE itMISS LATENCY: 0 cycles
cpu0_STLB AVERAGE dtMISS LATENCY: 0 cycles
cpu0_STLB PAGE CROSSINGS (TLB HIT):         0 
cpu0_STLB PAGE CROSSINGS (TLB MISS):         0 
cpu0_STLB AVERAGE MISS LATENCY: 168.376 cycles
cpu0_L1D TOTAL       ACCESS:   44382466  HIT:   38684028  MISS:    5698438  iACCESS:          0  iHIT:          0  iMISS:          0  dACCESS:   44176568  dHIT:   38665397  dMISS:    5511171  itACCESS:      57286  itHIT:       8440  itMISS:      48846  dtACCESS:     148612  dtHIT:      10191  dtMISS:     138421
cpu0_L1D LOAD         ACCESS:   21229639  HIT:   18079719  MISS:    3149920  iACCESS:          0  iHIT:          0  iMISS:          0  dACCESS:   21229639  dHIT:   18079719  dMISS:    3149920  itACCESS:          0  itHIT:          0  itMISS:          0  dtACCESS:          0  dtHIT:          0  dtMISS:          0
cpu0_L1D RFO          ACCESS:          0  HIT:          0  MISS:          0  iACCESS:          0  iHIT:          0  iMISS:          0  dACCESS:          0  dHIT:          0  dMISS:          0  itACCESS:          0  itHIT:          0  itMISS:          0  dtACCESS:          0  dtHIT:          0  dtMISS:          0
cpu0_L1D PREFETCH     ACCESS:   12835028  HIT:   11153326  MISS:    1681702  iACCESS:          0  iHIT:          0  iMISS:          0  dACCESS:   12835028  dHIT:   11153326  dMISS:    1681702  itACCESS:          0  itHIT:          0  itMISS:          0  dtACCESS:          0  dtHIT:          0  dtMISS:          0
cpu0_L1D WRITE        ACCESS:   10111901  HIT:    9432352  MISS:     679549  iACCESS:          0  iHIT:          0  iMISS:          0  dACCESS:   10111901  dHIT:    9432352  dMISS:     679549  itACCESS:          0  itHIT:          0  itMISS:          0  dtACCESS:          0  dtHIT:          0  dtMISS:          0
cpu0_L1D TRANSLATION  ACCESS:     205898  HIT:      18631  MISS:     187267  iACCESS:          0  iHIT:          0  iMISS:          0  dACCESS:          0  dHIT:          0  dMISS:          0  itACCESS:      57286  itHIT:       8440  itMISS:      48846  dtACCESS:     148612  dtHIT:      10191  dtMISS:     138421
cpu0_L1D PREFETCH  REQUESTED:   21229639  ISSUED:   17395088  CROSSED:          0  USEFUL:     272502  USELESS:     874466
cpu0_L1D AVERAGE iMISS LATENCY: 0 cycles
cpu0_L1D AVERAGE dMISS LATENCY: 23.5397 cycles
cpu0_L1D AVERAGE itMISS LATENCY: 1.04164 cycles
cpu0_L1D AVERAGE dtMISS LATENCY: 2.97328 cycles
cpu0_L1D PAGE CROSSINGS (TLB HIT):         0 
cpu0_L1D PAGE CROSSINGS (TLB MISS):         0 
cpu0_L1D AVERAGE MISS LATENCY: 27.5546 cycles
cpu0_L2C TOTAL       ACCESS:    8178126  HIT:    5507855  MISS:    2670271  iACCESS:    2957846  iHIT:    1977366  iMISS:     980480  dACCESS:    5042047  dHIT:    3504890  dMISS:    1537157  itACCESS:      48846  itHIT:       9088  itMISS:      39758  dtACCESS:     129387  dtHIT:      16511  dtMISS:     112876
cpu0_L2C LOAD         ACCESS:    3110213  HIT:    2493919  MISS:     616294  iACCESS:     705067  iHIT:     496352  iMISS:     208715  dACCESS:    2405146  dHIT:    1997567  dMISS:     407579  itACCESS:          0  itHIT:          0  itMISS:          0  dtACCESS:          0  dtHIT:          0  dtMISS:          0
cpu0_L2C RFO          ACCESS:     179487  HIT:      87158  MISS:      92329  iACCESS:          0  iHIT:          0  iMISS:          0  dACCESS:     179487  dHIT:      87158  dMISS:      92329  itACCESS:          0  itHIT:          0  itMISS:          0  dtACCESS:          0  dtHIT:          0  dtMISS:          0
cpu0_L2C PREFETCH     ACCESS:    4440700  HIT:    2632502  MISS:    1808198  iACCESS:    2252779  iHIT:    1481014  iMISS:     771765  dACCESS:    2187921  dHIT:    1151488  dMISS:    1036433  itACCESS:          0  itHIT:          0  itMISS:          0  dtACCESS:          0  dtHIT:          0  dtMISS:          0
cpu0_L2C WRITE        ACCESS:     269493  HIT:     268677  MISS:        816  iACCESS:          0  iHIT:          0  iMISS:          0  dACCESS:     269493  dHIT:     268677  dMISS:        816  itACCESS:          0  itHIT:          0  itMISS:          0  dtACCESS:          0  dtHIT:          0  dtMISS:          0
cpu0_L2C TRANSLATION  ACCESS:     178233  HIT:      25599  MISS:     152634  iACCESS:          0  iHIT:          0  iMISS:          0  dACCESS:          0  dHIT:          0  dMISS:          0  itACCESS:      48846  itHIT:       9088  itMISS:      39758  dtACCESS:     129387  dtHIT:      16511  dtMISS:     112876
cpu0_L2C PREFETCH  REQUESTED:    1271545  ISSUED:    1271505  CROSSED:          0  USEFUL:     293323  USELESS:     210960
cpu0_L2C AVERAGE iMISS LATENCY: 25.0342 cycles
cpu0_L2C AVERAGE dMISS LATENCY: 49.3292 cycles
cpu0_L2C AVERAGE itMISS LATENCY: 2.04282 cycles
cpu0_L2C AVERAGE dtMISS LATENCY: 5.86294 cycles
cpu0_L2C PAGE CROSSINGS (TLB HIT):         0 
cpu0_L2C PAGE CROSSINGS (TLB MISS):         0 
cpu0_L2C AVERAGE MISS LATENCY: 82.2691 cycles
LLC TOTAL       ACCESS:    2701174  HIT:    1653550  MISS:    1047624  iACCESS:     928646  iHIT:     610786  iMISS:     317860  dACCESS:    1619894  dHIT:     990663  dMISS:     629231  itACCESS:      39758  itHIT:      12833  itMISS:      26925  dtACCESS:     112876  dtHIT:      39268  dtMISS:      73608
LLC LOAD         ACCESS:     614274  HIT:     391092  MISS:     223182  iACCESS:     207667  iHIT:     138490  iMISS:      69177  dACCESS:     406607  dHIT:     252602  dMISS:     154005  itACCESS:          0  itHIT:          0  itMISS:          0  dtACCESS:          0  dtHIT:          0  dtMISS:          0
LLC RFO          ACCESS:      92323  HIT:      39757  MISS:      52566  iACCESS:          0  iHIT:          0  iMISS:          0  dACCESS:      92323  dHIT:      39757  dMISS:      52566  itACCESS:          0  itHIT:          0  itMISS:          0  dtACCESS:          0  dtHIT:          0  dtMISS:          0
LLC PREFETCH     ACCESS:    1704919  HIT:    1047721  MISS:     657198  iACCESS:     720979  iHIT:     472296  iMISS:     248683  dACCESS:     983940  dHIT:     575425  dMISS:     408515  itACCESS:          0  itHIT:          0  itMISS:          0  dtACCESS:          0  dtHIT:          0  dtMISS:          0
LLC WRITE        ACCESS:     137024  HIT:     122879  MISS:      14145  iACCESS:          0  iHIT:          0  iMISS:          0  dACCESS:     137024  dHIT:     122879  dMISS:      14145  itACCESS:          0  itHIT:          0  itMISS:          0  dtACCESS:          0  dtHIT:          0  dtMISS:          0
LLC TRANSLATION  ACCESS:     152634  HIT:      52101  MISS:     100533  iACCESS:          0  iHIT:          0  iMISS:          0  dACCESS:          0  dHIT:          0  dMISS:          0  itACCESS:      39758  itHIT:      12833  itMISS:      26925  dtACCESS:     112876  dtHIT:      39268  dtMISS:      73608
LLC PREFETCH  REQUESTED:          0  ISSUED:          0  CROSSED:          0  USEFUL:          0  USELESS:          0
LLC AVERAGE iMISS LATENCY: 46.5795 cycles
LLC AVERAGE dMISS LATENCY: 98.3782 cycles
LLC AVERAGE itMISS LATENCY: 4.46237 cycles
LLC AVERAGE dtMISS LATENCY: 12.8338 cycles
LLC PAGE CROSSINGS (TLB HIT):         0 
LLC PAGE CROSSINGS (TLB MISS):         0 
LLC AVERAGE MISS LATENCY: 162.254 cycles

PageTableWalker TOTAL       ACCESS:      85501  
PageTableWalker AVERAGE LATENCY: 5.23095 cycles
PageTableWalker TOTAL LATENCY: 447251 cycles

DRAM Statistics
Channel 0
 RQ ROW_BUFFER_HIT:     273738
  ROW_BUFFER_MISS:     759015
 AVG DBUS CONGESTED CYCLE:    3.67145
 WQ ROW_BUFFER_HIT:      21223
  ROW_BUFFER_MISS:      34108  FULL:          0

