last_page:0x200000000000000
VMEM_RES_CAP:0x100000
PAGE_SIZE:4096
LOG2_PAGE_SIZE:12
LOG2_PAGE_TABLE_SIZE:9
page_table_levels:5
WARNING: physical memory size is smaller than virtual memory size
FDiP enabled with aggresivity 16

*** ChampSim Multicore Out-of-Order Simulator ***

Warmup Instructions: 50000000
Simulation Instructions: 100000000
Number of CPUs: 1
Small page size: 4096
Large page size: 2097152

CPU 0 Bimodal branch predictor
Basic BTB sets: 1024 ways: 8 indirect buffer size: 4096 RAS size: 64
Instruction page size distrubution: 0
Loading instruction page size distribution from /home/bsc/bsc018186/scratch/itp_asplos25_AE/dump/srv403_ap.pdst
Data page size distrubution: 0
Loading data page size distribution from /home/bsc/bsc018186/scratch/itp_asplos25_AE/dump/srv403_ap.pdst
cpu0_L2C IP-based stride prefetcher
cpu0_L2C is using PTP replacement policy:
	TLB_STRESS_THRESHOLD:0
	PTE_EVICTION_RATIO:0
cpu0_L1D next line prefetcher
cpu0_STLB using iTP with max lru@8
cpu0_STLB using iTP with instr@0 and data@2
Init sat counter with 3 bits (max:50).
cpu0_L1I next line prefetcher
Off-chip DRAM Size: 4 GiB Channels: 1 Width: 64-bit Data Rate: 3200 MT/s
Heartbeat CPU 0 instructions: 10000001 cycles: 2500295 heartbeat IPC: 3.99953 cumulative IPC: 3.99953 (Simulation time: 0 hr 0 min 40 sec) 
Heartbeat CPU 0 instructions: 20000001 cycles: 5000333 heartbeat IPC: 3.99994 cumulative IPC: 3.99974 (Simulation time: 0 hr 1 min 22 sec) 
Heartbeat CPU 0 instructions: 30000002 cycles: 7500405 heartbeat IPC: 3.99989 cumulative IPC: 3.99979 (Simulation time: 0 hr 2 min 5 sec) 
Heartbeat CPU 0 instructions: 40000001 cycles: 10000410 heartbeat IPC: 4 cumulative IPC: 3.99984 (Simulation time: 0 hr 2 min 48 sec) 
Heartbeat CPU 0 instructions: 50000001 cycles: 12500470 heartbeat IPC: 3.99991 cumulative IPC: 3.99985 (Simulation time: 0 hr 3 min 31 sec) 
Warmup finished CPU 0 instructions: 50000001 cycles: 12500471 cumulative IPC: 3.99985 (Simulation time: 0 hr 3 min 31 sec) 

Warmup complete CPU 0 instructions: 50000001 cycles: 12500471 (Simulation time: 0 hr 3 min 31 sec) 

Heartbeat CPU 0 instructions: 60000001 cycles: 26800142 heartbeat IPC: 0.699317 cumulative IPC: 0.699317 (Simulation time: 0 hr 4 min 38 sec) 
Heartbeat CPU 0 instructions: 70000000 cycles: 40931101 heartbeat IPC: 0.707666 cumulative IPC: 0.703467 (Simulation time: 0 hr 5 min 45 sec) 
Heartbeat CPU 0 instructions: 80000000 cycles: 55473925 heartbeat IPC: 0.687625 cumulative IPC: 0.698106 (Simulation time: 0 hr 6 min 54 sec) 
Heartbeat CPU 0 instructions: 90000002 cycles: 70574457 heartbeat IPC: 0.662229 cumulative IPC: 0.688777 (Simulation time: 0 hr 8 min 4 sec) 
Heartbeat CPU 0 instructions: 100000004 cycles: 85140439 heartbeat IPC: 0.686532 cumulative IPC: 0.688327 (Simulation time: 0 hr 9 min 12 sec) 
*** Reached end of trace: /gpfs/projects/bsc18/MN4/bsc18/romol/ChampSim/traces/qualcomm_srv/srv403_ap.champsimtrace.xz
Heartbeat CPU 0 instructions: 110000000 cycles: 99933012 heartbeat IPC: 0.676015 cumulative IPC: 0.686244 (Simulation time: 0 hr 10 min 17 sec) 
Heartbeat CPU 0 instructions: 120000000 cycles: 114050788 heartbeat IPC: 0.708327 cumulative IPC: 0.689314 (Simulation time: 0 hr 11 min 21 sec) 
Heartbeat CPU 0 instructions: 130000001 cycles: 128414644 heartbeat IPC: 0.696192 cumulative IPC: 0.690166 (Simulation time: 0 hr 12 min 25 sec) 
Heartbeat CPU 0 instructions: 140000003 cycles: 143503694 heartbeat IPC: 0.662733 cumulative IPC: 0.687007 (Simulation time: 0 hr 13 min 29 sec) 
Heartbeat CPU 0 instructions: 150000004 cycles: 157945910 heartbeat IPC: 0.692415 cumulative IPC: 0.687544 (Simulation time: 0 hr 14 min 32 sec) 
Simulation finished CPU 0 instructions: 100000003 cycles: 145445440 cumulative IPC: 0.687544 (Simulation time: 0 hr 14 min 32 sec) 

Simulation complete CPU 0 instructions: 100000003 cycles: 145445440 (Simulation time: 0 hr 14 min 32 sec) 


ChampSim completed all CPUs

Saving instructions large page distribution to /home/bsc/bsc018186/scratch/itp_asplos25_AE/dump/srv403_ap.pdst...
Saving data large page distribution to /home/bsc/bsc018186/scratch/itp_asplos25_AE/dump/srv403_ap.pdst...
=== Simulation ===
CPU 0 runs /gpfs/projects/bsc18/MN4/bsc18/romol/ChampSim/traces/qualcomm_srv/srv403_ap.champsimtrace.xz

Region of Interest Statistics

CPU 0 cumulative IPC: 0.687544 instructions: 100000003 cycles: 145445440
CPU 0 Branch Prediction Accuracy: 82.8226% MPKI: 30.6827 Average ROB Occupancy at Mispredict: 12.4163
Branch type MPKI
BRANCH_DIRECT_JUMP: 1.04485
BRANCH_INDIRECT: 15.6331
BRANCH_CONDITIONAL: 10.2335
BRANCH_DIRECT_CALL: 1.90047
BRANCH_INDIRECT_CALL: 0.51571
BRANCH_RETURN: 1.35517

Instructions large pages: 0
Instructions small pages: 999
Large page distribution for instructions: 0%

Data large pages: 0
Data small pages: 9945
Large page distribution for data: 0%

cpu0_L1I TOTAL       ACCESS:   35535290  HIT:   27011382  MISS:    8523908  iACCESS:   35535290  iHIT:   27011382  iMISS:    8523908  dACCESS:          0  dHIT:          0  dMISS:          0  itACCESS:          0  itHIT:          0  itMISS:          0  dtACCESS:          0  dtHIT:          0  dtMISS:          0
cpu0_L1I LOAD         ACCESS:   10405003  HIT:    8027227  MISS:    2377776  iACCESS:   10405003  iHIT:    8027227  iMISS:    2377776  dACCESS:          0  dHIT:          0  dMISS:          0  itACCESS:          0  itHIT:          0  itMISS:          0  dtACCESS:          0  dtHIT:          0  dtMISS:          0
cpu0_L1I RFO          ACCESS:          0  HIT:          0  MISS:          0  iACCESS:          0  iHIT:          0  iMISS:          0  dACCESS:          0  dHIT:          0  dMISS:          0  itACCESS:          0  itHIT:          0  itMISS:          0  dtACCESS:          0  dtHIT:          0  dtMISS:          0
cpu0_L1I PREFETCH     ACCESS:   25130287  HIT:   18984155  MISS:    6146132  iACCESS:   25130287  iHIT:   18984155  iMISS:    6146132  dACCESS:          0  dHIT:          0  dMISS:          0  itACCESS:          0  itHIT:          0  itMISS:          0  dtACCESS:          0  dtHIT:          0  dtMISS:          0
cpu0_L1I WRITE        ACCESS:          0  HIT:          0  MISS:          0  iACCESS:          0  iHIT:          0  iMISS:          0  dACCESS:          0  dHIT:          0  dMISS:          0  itACCESS:          0  itHIT:          0  itMISS:          0  dtACCESS:          0  dtHIT:          0  dtMISS:          0
cpu0_L1I TRANSLATION  ACCESS:          0  HIT:          0  MISS:          0  iACCESS:          0  iHIT:          0  iMISS:          0  dACCESS:          0  dHIT:          0  dMISS:          0  itACCESS:          0  itHIT:          0  itMISS:          0  dtACCESS:          0  dtHIT:          0  dtMISS:          0
cpu0_L1I PREFETCH  REQUESTED:   27386852  ISSUED:   27382391  CROSSED:          0  USEFUL:    1943373  USELESS:     625476
cpu0_L1I AVERAGE iMISS LATENCY: 14.1476 cycles
cpu0_L1I AVERAGE dMISS LATENCY: 0 cycles
cpu0_L1I AVERAGE itMISS LATENCY: 0 cycles
cpu0_L1I AVERAGE dtMISS LATENCY: 0 cycles
cpu0_L1I PAGE CROSSINGS (TLB HIT):         0 
cpu0_L1I PAGE CROSSINGS (TLB MISS):         0 
cpu0_L1I AVERAGE MISS LATENCY: 14.1476 cycles
cpu0_ITLB TOTAL       ACCESS:   29341493  HIT:   27422067  MISS:    1919426  iACCESS:   29341493  iHIT:   27422067  iMISS:    1919426  dACCESS:          0  dHIT:          0  dMISS:          0  itACCESS:          0  itHIT:          0  itMISS:          0  dtACCESS:          0  dtHIT:          0  dtMISS:          0
cpu0_ITLB LOAD         ACCESS:   29341493  HIT:   27422067  MISS:    1919426  iACCESS:   29341493  iHIT:   27422067  iMISS:    1919426  dACCESS:          0  dHIT:          0  dMISS:          0  itACCESS:          0  itHIT:          0  itMISS:          0  dtACCESS:          0  dtHIT:          0  dtMISS:          0
cpu0_ITLB RFO          ACCESS:          0  HIT:          0  MISS:          0  iACCESS:          0  iHIT:          0  iMISS:          0  dACCESS:          0  dHIT:          0  dMISS:          0  itACCESS:          0  itHIT:          0  itMISS:          0  dtACCESS:          0  dtHIT:          0  dtMISS:          0
cpu0_ITLB PREFETCH     ACCESS:          0  HIT:          0  MISS:          0  iACCESS:          0  iHIT:          0  iMISS:          0  dACCESS:          0  dHIT:          0  dMISS:          0  itACCESS:          0  itHIT:          0  itMISS:          0  dtACCESS:          0  dtHIT:          0  dtMISS:          0
cpu0_ITLB WRITE        ACCESS:          0  HIT:          0  MISS:          0  iACCESS:          0  iHIT:          0  iMISS:          0  dACCESS:          0  dHIT:          0  dMISS:          0  itACCESS:          0  itHIT:          0  itMISS:          0  dtACCESS:          0  dtHIT:          0  dtMISS:          0
cpu0_ITLB TRANSLATION  ACCESS:          0  HIT:          0  MISS:          0  iACCESS:          0  iHIT:          0  iMISS:          0  dACCESS:          0  dHIT:          0  dMISS:          0  itACCESS:          0  itHIT:          0  itMISS:          0  dtACCESS:          0  dtHIT:          0  dtMISS:          0
cpu0_ITLB PREFETCH  REQUESTED:          0  ISSUED:          0  CROSSED:          0  USEFUL:     317058  USELESS:      63502
cpu0_ITLB AVERAGE iMISS LATENCY: 1.98556 cycles
cpu0_ITLB AVERAGE dMISS LATENCY: 0 cycles
cpu0_ITLB AVERAGE itMISS LATENCY: 0 cycles
cpu0_ITLB AVERAGE dtMISS LATENCY: 0 cycles
cpu0_ITLB PAGE CROSSINGS (TLB HIT):         0 
cpu0_ITLB PAGE CROSSINGS (TLB MISS):         0 
cpu0_ITLB AVERAGE MISS LATENCY: 1.98556 cycles
cpu0_DTLB TOTAL       ACCESS:   27742783  HIT:   25654451  MISS:    2088332  iACCESS:          0  iHIT:          0  iMISS:          0  dACCESS:   27742783  dHIT:   25654451  dMISS:    2088332  itACCESS:          0  itHIT:          0  itMISS:          0  dtACCESS:          0  dtHIT:          0  dtMISS:          0
cpu0_DTLB LOAD         ACCESS:   27742783  HIT:   25654451  MISS:    2088332  iACCESS:          0  iHIT:          0  iMISS:          0  dACCESS:   27742783  dHIT:   25654451  dMISS:    2088332  itACCESS:          0  itHIT:          0  itMISS:          0  dtACCESS:          0  dtHIT:          0  dtMISS:          0
cpu0_DTLB RFO          ACCESS:          0  HIT:          0  MISS:          0  iACCESS:          0  iHIT:          0  iMISS:          0  dACCESS:          0  dHIT:          0  dMISS:          0  itACCESS:          0  itHIT:          0  itMISS:          0  dtACCESS:          0  dtHIT:          0  dtMISS:          0
cpu0_DTLB PREFETCH     ACCESS:          0  HIT:          0  MISS:          0  iACCESS:          0  iHIT:          0  iMISS:          0  dACCESS:          0  dHIT:          0  dMISS:          0  itACCESS:          0  itHIT:          0  itMISS:          0  dtACCESS:          0  dtHIT:          0  dtMISS:          0
cpu0_DTLB WRITE        ACCESS:          0  HIT:          0  MISS:          0  iACCESS:          0  iHIT:          0  iMISS:          0  dACCESS:          0  dHIT:          0  dMISS:          0  itACCESS:          0  itHIT:          0  itMISS:          0  dtACCESS:          0  dtHIT:          0  dtMISS:          0
cpu0_DTLB TRANSLATION  ACCESS:          0  HIT:          0  MISS:          0  iACCESS:          0  iHIT:          0  iMISS:          0  dACCESS:          0  dHIT:          0  dMISS:          0  itACCESS:          0  itHIT:          0  itMISS:          0  dtACCESS:          0  dtHIT:          0  dtMISS:          0
cpu0_DTLB PREFETCH  REQUESTED:          0  ISSUED:          0  CROSSED:          0  USEFUL:          0  USELESS:          0
cpu0_DTLB AVERAGE iMISS LATENCY: 0 cycles
cpu0_DTLB AVERAGE dMISS LATENCY: 10.1796 cycles
cpu0_DTLB AVERAGE itMISS LATENCY: 0 cycles
cpu0_DTLB AVERAGE dtMISS LATENCY: 0 cycles
cpu0_DTLB PAGE CROSSINGS (TLB HIT):         0 
cpu0_DTLB PAGE CROSSINGS (TLB MISS):         0 
cpu0_DTLB AVERAGE MISS LATENCY: 10.1796 cycles
cpu0_STLB TOTAL       ACCESS:    1623790  HIT:    1479356  MISS:     144434  iACCESS:     380612  iHIT:     372321  iMISS:       8291  dACCESS:    1243178  dHIT:    1107035  dMISS:     136143  itACCESS:          0  itHIT:          0  itMISS:          0  dtACCESS:          0  dtHIT:          0  dtMISS:          0
cpu0_STLB LOAD         ACCESS:    1623790  HIT:    1479356  MISS:     144434  iACCESS:     380612  iHIT:     372321  iMISS:       8291  dACCESS:    1243178  dHIT:    1107035  dMISS:     136143  itACCESS:          0  itHIT:          0  itMISS:          0  dtACCESS:          0  dtHIT:          0  dtMISS:          0
cpu0_STLB RFO          ACCESS:          0  HIT:          0  MISS:          0  iACCESS:          0  iHIT:          0  iMISS:          0  dACCESS:          0  dHIT:          0  dMISS:          0  itACCESS:          0  itHIT:          0  itMISS:          0  dtACCESS:          0  dtHIT:          0  dtMISS:          0
cpu0_STLB PREFETCH     ACCESS:          0  HIT:          0  MISS:          0  iACCESS:          0  iHIT:          0  iMISS:          0  dACCESS:          0  dHIT:          0  dMISS:          0  itACCESS:          0  itHIT:          0  itMISS:          0  dtACCESS:          0  dtHIT:          0  dtMISS:          0
cpu0_STLB WRITE        ACCESS:          0  HIT:          0  MISS:          0  iACCESS:          0  iHIT:          0  iMISS:          0  dACCESS:          0  dHIT:          0  dMISS:          0  itACCESS:          0  itHIT:          0  itMISS:          0  dtACCESS:          0  dtHIT:          0  dtMISS:          0
cpu0_STLB TRANSLATION  ACCESS:          0  HIT:          0  MISS:          0  iACCESS:          0  iHIT:          0  iMISS:          0  dACCESS:          0  dHIT:          0  dMISS:          0  itACCESS:          0  itHIT:          0  itMISS:          0  dtACCESS:          0  dtHIT:          0  dtMISS:          0
cpu0_STLB PREFETCH  REQUESTED:          0  ISSUED:          0  CROSSED:          0  USEFUL:          0  USELESS:          0
cpu0_STLB AVERAGE iMISS LATENCY: 5.95941 cycles
cpu0_STLB AVERAGE dMISS LATENCY: 78.4695 cycles
cpu0_STLB AVERAGE itMISS LATENCY: 0 cycles
cpu0_STLB AVERAGE dtMISS LATENCY: 0 cycles
cpu0_STLB PAGE CROSSINGS (TLB HIT):         0 
cpu0_STLB PAGE CROSSINGS (TLB MISS):         0 
cpu0_STLB AVERAGE MISS LATENCY: 84.4289 cycles
cpu0_L1D TOTAL       ACCESS:   41570789  HIT:   38042870  MISS:    3527919  iACCESS:          0  iHIT:          0  iMISS:          0  dACCESS:   41354317  dHIT:   38029419  dMISS:    3324898  itACCESS:       9890  itHIT:       1038  itMISS:       8852  dtACCESS:     206582  dtHIT:      12413  dtMISS:     194169
cpu0_L1D LOAD         ACCESS:   18956048  HIT:   17450984  MISS:    1505064  iACCESS:          0  iHIT:          0  iMISS:          0  dACCESS:   18956048  dHIT:   17450984  dMISS:    1505064  itACCESS:          0  itHIT:          0  itMISS:          0  dtACCESS:          0  dtHIT:          0  dtMISS:          0
cpu0_L1D RFO          ACCESS:          0  HIT:          0  MISS:          0  iACCESS:          0  iHIT:          0  iMISS:          0  dACCESS:          0  dHIT:          0  dMISS:          0  itACCESS:          0  itHIT:          0  itMISS:          0  dtACCESS:          0  dtHIT:          0  dtMISS:          0
cpu0_L1D PREFETCH     ACCESS:   12222391  HIT:   10845727  MISS:    1376664  iACCESS:          0  iHIT:          0  iMISS:          0  dACCESS:   12222391  dHIT:   10845727  dMISS:    1376664  itACCESS:          0  itHIT:          0  itMISS:          0  dtACCESS:          0  dtHIT:          0  dtMISS:          0
cpu0_L1D WRITE        ACCESS:   10175878  HIT:    9732708  MISS:     443170  iACCESS:          0  iHIT:          0  iMISS:          0  dACCESS:   10175878  dHIT:    9732708  dMISS:     443170  itACCESS:          0  itHIT:          0  itMISS:          0  dtACCESS:          0  dtHIT:          0  dtMISS:          0
cpu0_L1D TRANSLATION  ACCESS:     216472  HIT:      13451  MISS:     203021  iACCESS:          0  iHIT:          0  iMISS:          0  dACCESS:          0  dHIT:          0  dMISS:          0  itACCESS:       9890  itHIT:       1038  itMISS:       8852  dtACCESS:     206582  dtHIT:      12413  dtMISS:     194169
cpu0_L1D PREFETCH  REQUESTED:   18956048  ISSUED:   17080466  CROSSED:          0  USEFUL:     307809  USELESS:     703706
cpu0_L1D AVERAGE iMISS LATENCY: 0 cycles
cpu0_L1D AVERAGE dMISS LATENCY: 36.1469 cycles
cpu0_L1D AVERAGE itMISS LATENCY: 0.218925 cycles
cpu0_L1D AVERAGE dtMISS LATENCY: 2.44952 cycles
cpu0_L1D PAGE CROSSINGS (TLB HIT):         0 
cpu0_L1D PAGE CROSSINGS (TLB MISS):         0 
cpu0_L1D AVERAGE MISS LATENCY: 38.8154 cycles
cpu0_L2C TOTAL       ACCESS:    7010045  HIT:    1213015  MISS:    5797030  iACCESS:    3304043  iHIT:     686084  iMISS:    2617959  dACCESS:    3515237  dHIT:     387478  dMISS:    3127759  itACCESS:       8852  itHIT:       3509  itMISS:       5343  dtACCESS:     181913  dtHIT:     135944  dtMISS:      45969
cpu0_L2C LOAD         ACCESS:    1704725  HIT:     127483  MISS:    1577242  iACCESS:     772849  iHIT:      89425  iMISS:     683424  dACCESS:     931876  dHIT:      38058  dMISS:     893818  itACCESS:          0  itHIT:          0  itMISS:          0  dtACCESS:          0  dtHIT:          0  dtMISS:          0
cpu0_L2C RFO          ACCESS:     158784  HIT:       8383  MISS:     150401  iACCESS:          0  iHIT:          0  iMISS:          0  dACCESS:     158784  dHIT:       8383  dMISS:     150401  itACCESS:          0  itHIT:          0  itMISS:          0  dtACCESS:          0  dtHIT:          0  dtMISS:          0
cpu0_L2C PREFETCH     ACCESS:    4674696  HIT:     881455  MISS:    3793241  iACCESS:    2531194  iHIT:     596659  iMISS:    1934535  dACCESS:    2143502  dHIT:     284796  dMISS:    1858706  itACCESS:          0  itHIT:          0  itMISS:          0  dtACCESS:          0  dtHIT:          0  dtMISS:          0
cpu0_L2C WRITE        ACCESS:     281075  HIT:      56241  MISS:     224834  iACCESS:          0  iHIT:          0  iMISS:          0  dACCESS:     281075  dHIT:      56241  dMISS:     224834  itACCESS:          0  itHIT:          0  itMISS:          0  dtACCESS:          0  dtHIT:          0  dtMISS:          0
cpu0_L2C TRANSLATION  ACCESS:     190765  HIT:     139453  MISS:      51312  iACCESS:          0  iHIT:          0  iMISS:          0  dACCESS:          0  dHIT:          0  dMISS:          0  itACCESS:       8852  itHIT:       3509  itMISS:       5343  dtACCESS:     181913  dtHIT:     135944  dtMISS:      45969
cpu0_L2C PREFETCH  REQUESTED:    1395518  ISSUED:    1395518  CROSSED:          0  USEFUL:     431321  USELESS:     388239
cpu0_L2C AVERAGE iMISS LATENCY: 15.4763 cycles
cpu0_L2C AVERAGE dMISS LATENCY: 25.8549 cycles
cpu0_L2C AVERAGE itMISS LATENCY: 0.118545 cycles
cpu0_L2C AVERAGE dtMISS LATENCY: 1.19869 cycles
cpu0_L2C PAGE CROSSINGS (TLB HIT):         0 
cpu0_L2C PAGE CROSSINGS (TLB MISS):         0 
cpu0_L2C AVERAGE MISS LATENCY: 42.6483 cycles
LLC TOTAL       ACCESS:    5708973  HIT:    4817696  MISS:     891277  iACCESS:    2558451  iHIT:    2286141  iMISS:     272310  dACCESS:    3099210  dHIT:    2517685  dMISS:     581525  itACCESS:       5343  itHIT:       1977  itMISS:       3366  dtACCESS:      45969  dtHIT:      11893  dtMISS:      34076
LLC LOAD         ACCESS:    1575360  HIT:    1368631  MISS:     206729  iACCESS:     681970  iHIT:     625234  iMISS:      56736  dACCESS:     893390  dHIT:     743397  dMISS:     149993  itACCESS:          0  itHIT:          0  itMISS:          0  dtACCESS:          0  dtHIT:          0  dtMISS:          0
LLC RFO          ACCESS:     150399  HIT:     111041  MISS:      39358  iACCESS:          0  iHIT:          0  iMISS:          0  dACCESS:     150399  dHIT:     111041  dMISS:      39358  itACCESS:          0  itHIT:          0  itMISS:          0  dtACCESS:          0  dtHIT:          0  dtMISS:          0
LLC PREFETCH     ACCESS:    3677024  HIT:    3069277  MISS:     607747  iACCESS:    1876481  iHIT:    1660907  iMISS:     215574  dACCESS:    1800543  dHIT:    1408370  dMISS:     392173  itACCESS:          0  itHIT:          0  itMISS:          0  dtACCESS:          0  dtHIT:          0  dtMISS:          0
LLC WRITE        ACCESS:     254878  HIT:     254877  MISS:          1  iACCESS:          0  iHIT:          0  iMISS:          0  dACCESS:     254878  dHIT:     254877  dMISS:          1  itACCESS:          0  itHIT:          0  itMISS:          0  dtACCESS:          0  dtHIT:          0  dtMISS:          0
LLC TRANSLATION  ACCESS:      51312  HIT:      13870  MISS:      37442  iACCESS:          0  iHIT:          0  iMISS:          0  dACCESS:          0  dHIT:          0  dMISS:          0  itACCESS:       5343  itHIT:       1977  itMISS:       3366  dtACCESS:      45969  dtHIT:      11893  dtMISS:      34076
LLC PREFETCH  REQUESTED:          0  ISSUED:          0  CROSSED:          0  USEFUL:          0  USELESS:          0
LLC AVERAGE iMISS LATENCY: 45.2759 cycles
LLC AVERAGE dMISS LATENCY: 106.543 cycles
LLC AVERAGE itMISS LATENCY: 0.653669 cycles
LLC AVERAGE dtMISS LATENCY: 6.78134 cycles
LLC PAGE CROSSINGS (TLB HIT):         0 
LLC PAGE CROSSINGS (TLB MISS):         0 
LLC AVERAGE MISS LATENCY: 159.254 cycles

PageTableWalker TOTAL       ACCESS:      72061  
PageTableWalker AVERAGE LATENCY: 4.62341 cycles
PageTableWalker TOTAL LATENCY: 333167 cycles

DRAM Statistics
Channel 0
 RQ ROW_BUFFER_HIT:     248916
  ROW_BUFFER_MISS:     642271
 AVG DBUS CONGESTED CYCLE:    3.63422
 WQ ROW_BUFFER_HIT:      21703
  ROW_BUFFER_MISS:      29565  FULL:          0

