last_page:0x200000000000000
VMEM_RES_CAP:0x100000
PAGE_SIZE:4096
LOG2_PAGE_SIZE:12
LOG2_PAGE_TABLE_SIZE:9
page_table_levels:5
WARNING: physical memory size is smaller than virtual memory size
FDiP enabled with aggresivity 16

*** ChampSim Multicore Out-of-Order Simulator ***

Warmup Instructions: 50000000
Simulation Instructions: 100000000
Number of CPUs: 1
Small page size: 4096
Large page size: 2097152

CPU 0 Bimodal branch predictor
Basic BTB sets: 1024 ways: 8 indirect buffer size: 4096 RAS size: 64
Instruction page size distrubution: 0
Loading instruction page size distribution from /home/bsc/bsc018186/scratch/itp_asplos25_AE/dump/srv401_ap.pdst
Data page size distrubution: 0
Loading data page size distribution from /home/bsc/bsc018186/scratch/itp_asplos25_AE/dump/srv401_ap.pdst
cpu0_L2C IP-based stride prefetcher
cpu0_L1D next line prefetcher
cpu0_STLB using iTP with max lru@8
cpu0_STLB using iTP with instr@0 and data@2
Init sat counter with 3 bits (max:50).
cpu0_L1I next line prefetcher
Off-chip DRAM Size: 4 GiB Channels: 1 Width: 64-bit Data Rate: 3200 MT/s
Heartbeat CPU 0 instructions: 10000001 cycles: 2500155 heartbeat IPC: 3.99976 cumulative IPC: 3.99976 (Simulation time: 0 hr 0 min 36 sec) 
Heartbeat CPU 0 instructions: 20000001 cycles: 5000155 heartbeat IPC: 4 cumulative IPC: 3.99988 (Simulation time: 0 hr 1 min 15 sec) 
Heartbeat CPU 0 instructions: 30000001 cycles: 7500190 heartbeat IPC: 3.99995 cumulative IPC: 3.9999 (Simulation time: 0 hr 1 min 54 sec) 
Heartbeat CPU 0 instructions: 40000001 cycles: 10000274 heartbeat IPC: 3.99987 cumulative IPC: 3.9999 (Simulation time: 0 hr 2 min 34 sec) 
Heartbeat CPU 0 instructions: 50000003 cycles: 12500279 heartbeat IPC: 4 cumulative IPC: 3.99992 (Simulation time: 0 hr 3 min 14 sec) 
Warmup finished CPU 0 instructions: 50000003 cycles: 12500280 cumulative IPC: 3.99992 (Simulation time: 0 hr 3 min 14 sec) 

Warmup complete CPU 0 instructions: 50000003 cycles: 12500280 (Simulation time: 0 hr 3 min 14 sec) 

Heartbeat CPU 0 instructions: 60000003 cycles: 28092109 heartbeat IPC: 0.641362 cumulative IPC: 0.641362 (Simulation time: 0 hr 4 min 19 sec) 
Heartbeat CPU 0 instructions: 70000002 cycles: 42510228 heartbeat IPC: 0.693572 cumulative IPC: 0.666446 (Simulation time: 0 hr 5 min 21 sec) 
Heartbeat CPU 0 instructions: 80000001 cycles: 58449567 heartbeat IPC: 0.627379 cumulative IPC: 0.652894 (Simulation time: 0 hr 6 min 27 sec) 
Heartbeat CPU 0 instructions: 90000002 cycles: 73705485 heartbeat IPC: 0.655484 cumulative IPC: 0.65354 (Simulation time: 0 hr 7 min 31 sec) 
Heartbeat CPU 0 instructions: 100000001 cycles: 88941143 heartbeat IPC: 0.656355 cumulative IPC: 0.654101 (Simulation time: 0 hr 8 min 35 sec) 
*** Reached end of trace: /gpfs/projects/bsc18/MN4/bsc18/romol/ChampSim/traces/qualcomm_srv/srv401_ap.champsimtrace.xz
Heartbeat CPU 0 instructions: 110000004 cycles: 104733768 heartbeat IPC: 0.633208 cumulative IPC: 0.650523 (Simulation time: 0 hr 9 min 40 sec) 
Heartbeat CPU 0 instructions: 120000003 cycles: 118983566 heartbeat IPC: 0.701765 cumulative IPC: 0.657381 (Simulation time: 0 hr 10 min 43 sec) 
Heartbeat CPU 0 instructions: 130000004 cycles: 133445052 heartbeat IPC: 0.691492 cumulative IPC: 0.661459 (Simulation time: 0 hr 11 min 46 sec) 
Heartbeat CPU 0 instructions: 140000001 cycles: 147553993 heartbeat IPC: 0.708771 cumulative IPC: 0.666402 (Simulation time: 0 hr 12 min 50 sec) 
Heartbeat CPU 0 instructions: 150000001 cycles: 161725688 heartbeat IPC: 0.705632 cumulative IPC: 0.670128 (Simulation time: 0 hr 13 min 53 sec) 
Simulation finished CPU 0 instructions: 100000003 cycles: 149225410 cumulative IPC: 0.670128 (Simulation time: 0 hr 13 min 53 sec) 

Simulation complete CPU 0 instructions: 100000003 cycles: 149225410 (Simulation time: 0 hr 13 min 53 sec) 


ChampSim completed all CPUs

Saving instructions large page distribution to /home/bsc/bsc018186/scratch/itp_asplos25_AE/dump/srv401_ap.pdst...
Saving data large page distribution to /home/bsc/bsc018186/scratch/itp_asplos25_AE/dump/srv401_ap.pdst...
=== Simulation ===
CPU 0 runs /gpfs/projects/bsc18/MN4/bsc18/romol/ChampSim/traces/qualcomm_srv/srv401_ap.champsimtrace.xz

Region of Interest Statistics

CPU 0 cumulative IPC: 0.670128 instructions: 100000003 cycles: 149225410
CPU 0 Branch Prediction Accuracy: 83.2172% MPKI: 30.0396 Average ROB Occupancy at Mispredict: 13.755
Branch type MPKI
BRANCH_DIRECT_JUMP: 1.01862
BRANCH_INDIRECT: 15.6871
BRANCH_CONDITIONAL: 9.67775
BRANCH_DIRECT_CALL: 1.82815
BRANCH_INDIRECT_CALL: 0.50017
BRANCH_RETURN: 1.32778

Instructions large pages: 0
Instructions small pages: 1046
Large page distribution for instructions: 0%

Data large pages: 0
Data small pages: 10425
Large page distribution for data: 0%

cpu0_L1I TOTAL       ACCESS:   34835985  HIT:   27073954  MISS:    7762031  iACCESS:   34835985  iHIT:   27073954  iMISS:    7762031  dACCESS:          0  dHIT:          0  dMISS:          0  itACCESS:          0  itHIT:          0  itMISS:          0  dtACCESS:          0  dtHIT:          0  dtMISS:          0
cpu0_L1I LOAD         ACCESS:   10252805  HIT:    8066296  MISS:    2186509  iACCESS:   10252805  iHIT:    8066296  iMISS:    2186509  dACCESS:          0  dHIT:          0  dMISS:          0  itACCESS:          0  itHIT:          0  itMISS:          0  dtACCESS:          0  dtHIT:          0  dtMISS:          0
cpu0_L1I RFO          ACCESS:          0  HIT:          0  MISS:          0  iACCESS:          0  iHIT:          0  iMISS:          0  dACCESS:          0  dHIT:          0  dMISS:          0  itACCESS:          0  itHIT:          0  itMISS:          0  dtACCESS:          0  dtHIT:          0  dtMISS:          0
cpu0_L1I PREFETCH     ACCESS:   24583180  HIT:   19007658  MISS:    5575522  iACCESS:   24583180  iHIT:   19007658  iMISS:    5575522  dACCESS:          0  dHIT:          0  dMISS:          0  itACCESS:          0  itHIT:          0  itMISS:          0  dtACCESS:          0  dtHIT:          0  dtMISS:          0
cpu0_L1I WRITE        ACCESS:          0  HIT:          0  MISS:          0  iACCESS:          0  iHIT:          0  iMISS:          0  dACCESS:          0  dHIT:          0  dMISS:          0  itACCESS:          0  itHIT:          0  itMISS:          0  dtACCESS:          0  dtHIT:          0  dtMISS:          0
cpu0_L1I TRANSLATION  ACCESS:          0  HIT:          0  MISS:          0  iACCESS:          0  iHIT:          0  iMISS:          0  dACCESS:          0  dHIT:          0  dMISS:          0  itACCESS:          0  itHIT:          0  itMISS:          0  dtACCESS:          0  dtHIT:          0  dtMISS:          0
cpu0_L1I PREFETCH  REQUESTED:   27177156  ISSUED:   27177156  CROSSED:          0  USEFUL:    1885269  USELESS:     623431
cpu0_L1I AVERAGE iMISS LATENCY: 12.7939 cycles
cpu0_L1I AVERAGE dMISS LATENCY: 0 cycles
cpu0_L1I AVERAGE itMISS LATENCY: 0 cycles
cpu0_L1I AVERAGE dtMISS LATENCY: 0 cycles
cpu0_L1I PAGE CROSSINGS (TLB HIT):         0 
cpu0_L1I PAGE CROSSINGS (TLB MISS):         0 
cpu0_L1I AVERAGE MISS LATENCY: 12.7939 cycles
cpu0_ITLB TOTAL       ACCESS:   29062650  HIT:   27087761  MISS:    1974889  iACCESS:   29062650  iHIT:   27087761  iMISS:    1974889  dACCESS:          0  dHIT:          0  dMISS:          0  itACCESS:          0  itHIT:          0  itMISS:          0  dtACCESS:          0  dtHIT:          0  dtMISS:          0
cpu0_ITLB LOAD         ACCESS:   29062650  HIT:   27087761  MISS:    1974889  iACCESS:   29062650  iHIT:   27087761  iMISS:    1974889  dACCESS:          0  dHIT:          0  dMISS:          0  itACCESS:          0  itHIT:          0  itMISS:          0  dtACCESS:          0  dtHIT:          0  dtMISS:          0
cpu0_ITLB RFO          ACCESS:          0  HIT:          0  MISS:          0  iACCESS:          0  iHIT:          0  iMISS:          0  dACCESS:          0  dHIT:          0  dMISS:          0  itACCESS:          0  itHIT:          0  itMISS:          0  dtACCESS:          0  dtHIT:          0  dtMISS:          0
cpu0_ITLB PREFETCH     ACCESS:          0  HIT:          0  MISS:          0  iACCESS:          0  iHIT:          0  iMISS:          0  dACCESS:          0  dHIT:          0  dMISS:          0  itACCESS:          0  itHIT:          0  itMISS:          0  dtACCESS:          0  dtHIT:          0  dtMISS:          0
cpu0_ITLB WRITE        ACCESS:          0  HIT:          0  MISS:          0  iACCESS:          0  iHIT:          0  iMISS:          0  dACCESS:          0  dHIT:          0  dMISS:          0  itACCESS:          0  itHIT:          0  itMISS:          0  dtACCESS:          0  dtHIT:          0  dtMISS:          0
cpu0_ITLB TRANSLATION  ACCESS:          0  HIT:          0  MISS:          0  iACCESS:          0  iHIT:          0  iMISS:          0  dACCESS:          0  dHIT:          0  dMISS:          0  itACCESS:          0  itHIT:          0  itMISS:          0  dtACCESS:          0  dtHIT:          0  dtMISS:          0
cpu0_ITLB PREFETCH  REQUESTED:          0  ISSUED:          0  CROSSED:          0  USEFUL:     319953  USELESS:      67444
cpu0_ITLB AVERAGE iMISS LATENCY: 2.11523 cycles
cpu0_ITLB AVERAGE dMISS LATENCY: 0 cycles
cpu0_ITLB AVERAGE itMISS LATENCY: 0 cycles
cpu0_ITLB AVERAGE dtMISS LATENCY: 0 cycles
cpu0_ITLB PAGE CROSSINGS (TLB HIT):         0 
cpu0_ITLB PAGE CROSSINGS (TLB MISS):         0 
cpu0_ITLB AVERAGE MISS LATENCY: 2.11523 cycles
cpu0_DTLB TOTAL       ACCESS:   27827539  HIT:   25793154  MISS:    2034385  iACCESS:          0  iHIT:          0  iMISS:          0  dACCESS:   27827539  dHIT:   25793154  dMISS:    2034385  itACCESS:          0  itHIT:          0  itMISS:          0  dtACCESS:          0  dtHIT:          0  dtMISS:          0
cpu0_DTLB LOAD         ACCESS:   27827539  HIT:   25793154  MISS:    2034385  iACCESS:          0  iHIT:          0  iMISS:          0  dACCESS:   27827539  dHIT:   25793154  dMISS:    2034385  itACCESS:          0  itHIT:          0  itMISS:          0  dtACCESS:          0  dtHIT:          0  dtMISS:          0
cpu0_DTLB RFO          ACCESS:          0  HIT:          0  MISS:          0  iACCESS:          0  iHIT:          0  iMISS:          0  dACCESS:          0  dHIT:          0  dMISS:          0  itACCESS:          0  itHIT:          0  itMISS:          0  dtACCESS:          0  dtHIT:          0  dtMISS:          0
cpu0_DTLB PREFETCH     ACCESS:          0  HIT:          0  MISS:          0  iACCESS:          0  iHIT:          0  iMISS:          0  dACCESS:          0  dHIT:          0  dMISS:          0  itACCESS:          0  itHIT:          0  itMISS:          0  dtACCESS:          0  dtHIT:          0  dtMISS:          0
cpu0_DTLB WRITE        ACCESS:          0  HIT:          0  MISS:          0  iACCESS:          0  iHIT:          0  iMISS:          0  dACCESS:          0  dHIT:          0  dMISS:          0  itACCESS:          0  itHIT:          0  itMISS:          0  dtACCESS:          0  dtHIT:          0  dtMISS:          0
cpu0_DTLB TRANSLATION  ACCESS:          0  HIT:          0  MISS:          0  iACCESS:          0  iHIT:          0  iMISS:          0  dACCESS:          0  dHIT:          0  dMISS:          0  itACCESS:          0  itHIT:          0  itMISS:          0  dtACCESS:          0  dtHIT:          0  dtMISS:          0
cpu0_DTLB PREFETCH  REQUESTED:          0  ISSUED:          0  CROSSED:          0  USEFUL:          0  USELESS:          0
cpu0_DTLB AVERAGE iMISS LATENCY: 0 cycles
cpu0_DTLB AVERAGE dMISS LATENCY: 16.7648 cycles
cpu0_DTLB AVERAGE itMISS LATENCY: 0 cycles
cpu0_DTLB AVERAGE dtMISS LATENCY: 0 cycles
cpu0_DTLB PAGE CROSSINGS (TLB HIT):         0 
cpu0_DTLB PAGE CROSSINGS (TLB MISS):         0 
cpu0_DTLB AVERAGE MISS LATENCY: 16.7648 cycles
cpu0_STLB TOTAL       ACCESS:    1632595  HIT:    1484445  MISS:     148150  iACCESS:     387396  iHIT:     379556  iMISS:       7840  dACCESS:    1245199  dHIT:    1104889  dMISS:     140310  itACCESS:          0  itHIT:          0  itMISS:          0  dtACCESS:          0  dtHIT:          0  dtMISS:          0
cpu0_STLB LOAD         ACCESS:    1632595  HIT:    1484445  MISS:     148150  iACCESS:     387396  iHIT:     379556  iMISS:       7840  dACCESS:    1245199  dHIT:    1104889  dMISS:     140310  itACCESS:          0  itHIT:          0  itMISS:          0  dtACCESS:          0  dtHIT:          0  dtMISS:          0
cpu0_STLB RFO          ACCESS:          0  HIT:          0  MISS:          0  iACCESS:          0  iHIT:          0  iMISS:          0  dACCESS:          0  dHIT:          0  dMISS:          0  itACCESS:          0  itHIT:          0  itMISS:          0  dtACCESS:          0  dtHIT:          0  dtMISS:          0
cpu0_STLB PREFETCH     ACCESS:          0  HIT:          0  MISS:          0  iACCESS:          0  iHIT:          0  iMISS:          0  dACCESS:          0  dHIT:          0  dMISS:          0  itACCESS:          0  itHIT:          0  itMISS:          0  dtACCESS:          0  dtHIT:          0  dtMISS:          0
cpu0_STLB WRITE        ACCESS:          0  HIT:          0  MISS:          0  iACCESS:          0  iHIT:          0  iMISS:          0  dACCESS:          0  dHIT:          0  dMISS:          0  itACCESS:          0  itHIT:          0  itMISS:          0  dtACCESS:          0  dtHIT:          0  dtMISS:          0
cpu0_STLB TRANSLATION  ACCESS:          0  HIT:          0  MISS:          0  iACCESS:          0  iHIT:          0  iMISS:          0  dACCESS:          0  dHIT:          0  dMISS:          0  itACCESS:          0  itHIT:          0  itMISS:          0  dtACCESS:          0  dtHIT:          0  dtMISS:          0
cpu0_STLB PREFETCH  REQUESTED:          0  ISSUED:          0  CROSSED:          0  USEFUL:          0  USELESS:          0
cpu0_STLB AVERAGE iMISS LATENCY: 7.88739 cycles
cpu0_STLB AVERAGE dMISS LATENCY: 162.969 cycles
cpu0_STLB AVERAGE itMISS LATENCY: 0 cycles
cpu0_STLB AVERAGE dtMISS LATENCY: 0 cycles
cpu0_STLB PAGE CROSSINGS (TLB HIT):         0 
cpu0_STLB PAGE CROSSINGS (TLB MISS):         0 
cpu0_STLB AVERAGE MISS LATENCY: 170.856 cycles
cpu0_L1D TOTAL       ACCESS:   41518765  HIT:   38048791  MISS:    3469974  iACCESS:          0  iHIT:          0  iMISS:          0  dACCESS:   41297915  dHIT:   38034121  dMISS:    3263794  itACCESS:       9578  itHIT:       1020  itMISS:       8558  dtACCESS:     211272  dtHIT:      13650  dtMISS:     197622
cpu0_L1D LOAD         ACCESS:   18995355  HIT:   17507919  MISS:    1487436  iACCESS:          0  iHIT:          0  iMISS:          0  dACCESS:   18995355  dHIT:   17507919  dMISS:    1487436  itACCESS:          0  itHIT:          0  itMISS:          0  dtACCESS:          0  dtHIT:          0  dtMISS:          0
cpu0_L1D RFO          ACCESS:          0  HIT:          0  MISS:          0  iACCESS:          0  iHIT:          0  iMISS:          0  dACCESS:          0  dHIT:          0  dMISS:          0  itACCESS:          0  itHIT:          0  itMISS:          0  dtACCESS:          0  dtHIT:          0  dtMISS:          0
cpu0_L1D PREFETCH     ACCESS:   12113165  HIT:   10775753  MISS:    1337412  iACCESS:          0  iHIT:          0  iMISS:          0  dACCESS:   12113165  dHIT:   10775753  dMISS:    1337412  itACCESS:          0  itHIT:          0  itMISS:          0  dtACCESS:          0  dtHIT:          0  dtMISS:          0
cpu0_L1D WRITE        ACCESS:   10189395  HIT:    9750449  MISS:     438946  iACCESS:          0  iHIT:          0  iMISS:          0  dACCESS:   10189395  dHIT:    9750449  dMISS:     438946  itACCESS:          0  itHIT:          0  itMISS:          0  dtACCESS:          0  dtHIT:          0  dtMISS:          0
cpu0_L1D TRANSLATION  ACCESS:     220850  HIT:      14670  MISS:     206180  iACCESS:          0  iHIT:          0  iMISS:          0  dACCESS:          0  dHIT:          0  dMISS:          0  itACCESS:       9578  itHIT:       1020  itMISS:       8558  dtACCESS:     211272  dtHIT:      13650  dtMISS:     197622
cpu0_L1D PREFETCH  REQUESTED:   18995355  ISSUED:   16911492  CROSSED:          0  USEFUL:     305448  USELESS:     700539
cpu0_L1D AVERAGE iMISS LATENCY: 0 cycles
cpu0_L1D AVERAGE dMISS LATENCY: 33.3903 cycles
cpu0_L1D AVERAGE itMISS LATENCY: 0.308858 cycles
cpu0_L1D AVERAGE dtMISS LATENCY: 6.07771 cycles
cpu0_L1D PAGE CROSSINGS (TLB HIT):         0 
cpu0_L1D PAGE CROSSINGS (TLB MISS):         0 
cpu0_L1D AVERAGE MISS LATENCY: 39.7769 cycles
cpu0_L2C TOTAL       ACCESS:    6908535  HIT:    4019874  MISS:    2888661  iACCESS:    3265686  iHIT:    2187249  iMISS:    1078437  dACCESS:    3447071  dHIT:    1796638  dMISS:    1650433  itACCESS:       8558  itHIT:       1732  itMISS:       6826  dtACCESS:     187220  dtHIT:      34255  dtMISS:     152965
cpu0_L2C LOAD         ACCESS:    1723445  HIT:    1035696  MISS:     687749  iACCESS:     792701  iHIT:     556986  iMISS:     235715  dACCESS:     930744  dHIT:     478710  dMISS:     452034  itACCESS:          0  itHIT:          0  itMISS:          0  dtACCESS:          0  dtHIT:          0  dtMISS:          0
cpu0_L2C RFO          ACCESS:     156841  HIT:      69809  MISS:      87032  iACCESS:          0  iHIT:          0  iMISS:          0  dACCESS:     156841  dHIT:      69809  dMISS:      87032  itACCESS:          0  itHIT:          0  itMISS:          0  dtACCESS:          0  dtHIT:          0  dtMISS:          0
cpu0_L2C PREFETCH     ACCESS:    4547706  HIT:    2595332  MISS:    1952374  iACCESS:    2472985  iHIT:    1630263  iMISS:     842722  dACCESS:    2074721  dHIT:     965069  dMISS:    1109652  itACCESS:          0  itHIT:          0  itMISS:          0  dtACCESS:          0  dtHIT:          0  dtMISS:          0
cpu0_L2C WRITE        ACCESS:     284765  HIT:     283050  MISS:       1715  iACCESS:          0  iHIT:          0  iMISS:          0  dACCESS:     284765  dHIT:     283050  dMISS:       1715  itACCESS:          0  itHIT:          0  itMISS:          0  dtACCESS:          0  dtHIT:          0  dtMISS:          0
cpu0_L2C TRANSLATION  ACCESS:     195778  HIT:      35987  MISS:     159791  iACCESS:          0  iHIT:          0  iMISS:          0  dACCESS:          0  dHIT:          0  dMISS:          0  itACCESS:       8558  itHIT:       1732  itMISS:       6826  dtACCESS:     187220  dtHIT:      34255  dtMISS:     152965
cpu0_L2C PREFETCH  REQUESTED:    1316013  ISSUED:    1316013  CROSSED:          0  USEFUL:     309050  USELESS:     222584
cpu0_L2C AVERAGE iMISS LATENCY: 24.2537 cycles
cpu0_L2C AVERAGE dMISS LATENCY: 46.6392 cycles
cpu0_L2C AVERAGE itMISS LATENCY: 0.341928 cycles
cpu0_L2C AVERAGE dtMISS LATENCY: 6.65957 cycles
cpu0_L2C PAGE CROSSINGS (TLB HIT):         0 
cpu0_L2C PAGE CROSSINGS (TLB MISS):         0 
cpu0_L2C AVERAGE MISS LATENCY: 77.8944 cycles
LLC TOTAL       ACCESS:    2922914  HIT:    1854565  MISS:    1068349  iACCESS:    1026511  iHIT:     690350  iMISS:     336161  dACCESS:    1736612  dHIT:    1101081  dMISS:     635531  itACCESS:       6826  itHIT:       1933  itMISS:       4893  dtACCESS:     152965  dtHIT:      61201  dtMISS:      91764
LLC LOAD         ACCESS:     686292  HIT:     449795  MISS:     236497  iACCESS:     234731  iHIT:     162601  iMISS:      72130  dACCESS:     451561  dHIT:     287194  dMISS:     164367  itACCESS:          0  itHIT:          0  itMISS:          0  dtACCESS:          0  dtHIT:          0  dtMISS:          0
LLC RFO          ACCESS:      87019  HIT:      44049  MISS:      42970  iACCESS:          0  iHIT:          0  iMISS:          0  dACCESS:      87019  dHIT:      44049  dMISS:      42970  itACCESS:          0  itHIT:          0  itMISS:          0  dtACCESS:          0  dtHIT:          0  dtMISS:          0
LLC PREFETCH     ACCESS:    1849849  HIT:    1163840  MISS:     686009  iACCESS:     791780  iHIT:     527749  iMISS:     264031  dACCESS:    1058069  dHIT:     636091  dMISS:     421978  itACCESS:          0  itHIT:          0  itMISS:          0  dtACCESS:          0  dtHIT:          0  dtMISS:          0
LLC WRITE        ACCESS:     139963  HIT:     133747  MISS:       6216  iACCESS:          0  iHIT:          0  iMISS:          0  dACCESS:     139963  dHIT:     133747  dMISS:       6216  itACCESS:          0  itHIT:          0  itMISS:          0  dtACCESS:          0  dtHIT:          0  dtMISS:          0
LLC TRANSLATION  ACCESS:     159791  HIT:      63134  MISS:      96657  iACCESS:          0  iHIT:          0  iMISS:          0  dACCESS:          0  dHIT:          0  dMISS:          0  itACCESS:       6826  itHIT:       1933  itMISS:       4893  dtACCESS:     152965  dtHIT:      61201  dtMISS:      91764
LLC PREFETCH  REQUESTED:          0  ISSUED:          0  CROSSED:          0  USEFUL:          0  USELESS:          0
LLC AVERAGE iMISS LATENCY: 46.9197 cycles
LLC AVERAGE dMISS LATENCY: 97.1935 cycles
LLC AVERAGE itMISS LATENCY: 0.798989 cycles
LLC AVERAGE dtMISS LATENCY: 15.2067 cycles
LLC PAGE CROSSINGS (TLB HIT):         0 
LLC PAGE CROSSINGS (TLB MISS):         0 
LLC AVERAGE MISS LATENCY: 160.119 cycles

PageTableWalker TOTAL       ACCESS:      71786  
PageTableWalker AVERAGE LATENCY: 5.76425 cycles
PageTableWalker TOTAL LATENCY: 413792 cycles

DRAM Statistics
Channel 0
 RQ ROW_BUFFER_HIT:     276147
  ROW_BUFFER_MISS:     785915
 AVG DBUS CONGESTED CYCLE:    3.62202
 WQ ROW_BUFFER_HIT:      22268
  ROW_BUFFER_MISS:      22360  FULL:          0

