last_page:0x200000000000000
VMEM_RES_CAP:0x100000
PAGE_SIZE:4096
LOG2_PAGE_SIZE:12
LOG2_PAGE_TABLE_SIZE:9
page_table_levels:5
WARNING: physical memory size is smaller than virtual memory size
FDiP enabled with aggresivity 16

*** ChampSim Multicore Out-of-Order Simulator ***

Warmup Instructions: 50000000
Simulation Instructions: 100000000
Number of CPUs: 1
Small page size: 4096
Large page size: 2097152

CPU 0 Bimodal branch predictor
Basic BTB sets: 1024 ways: 8 indirect buffer size: 4096 RAS size: 64
Instruction page size distrubution: 0
Loading instruction page size distribution from /home/bsc/bsc018186/scratch/itp_asplos25_AE/dump/srv486_ap.pdst
Data page size distrubution: 0
Loading data page size distribution from /home/bsc/bsc018186/scratch/itp_asplos25_AE/dump/srv486_ap.pdst
cpu0_L2C IP-based stride prefetcher
cpu0_L1D next line prefetcher
cpu0_STLB using iTP with max lru@8
cpu0_STLB using iTP with instr@0 and data@2
Init sat counter with 3 bits (max:50).
cpu0_L1I next line prefetcher
Off-chip DRAM Size: 4 GiB Channels: 1 Width: 64-bit Data Rate: 3200 MT/s
Heartbeat CPU 0 instructions: 10000000 cycles: 2500285 heartbeat IPC: 3.99955 cumulative IPC: 3.99955 (Simulation time: 0 hr 0 min 38 sec) 
Heartbeat CPU 0 instructions: 20000002 cycles: 5000470 heartbeat IPC: 3.99971 cumulative IPC: 3.99963 (Simulation time: 0 hr 1 min 17 sec) 
Heartbeat CPU 0 instructions: 30000000 cycles: 7518033 heartbeat IPC: 3.9721 cumulative IPC: 3.99041 (Simulation time: 0 hr 1 min 57 sec) 
Heartbeat CPU 0 instructions: 40000001 cycles: 10018059 heartbeat IPC: 3.99996 cumulative IPC: 3.99279 (Simulation time: 0 hr 2 min 37 sec) 
Heartbeat CPU 0 instructions: 50000000 cycles: 12518159 heartbeat IPC: 3.99984 cumulative IPC: 3.9942 (Simulation time: 0 hr 3 min 17 sec) 
Warmup finished CPU 0 instructions: 50000000 cycles: 12518160 cumulative IPC: 3.9942 (Simulation time: 0 hr 3 min 17 sec) 

Warmup complete CPU 0 instructions: 50000000 cycles: 12518160 (Simulation time: 0 hr 3 min 17 sec) 

Heartbeat CPU 0 instructions: 60000000 cycles: 18819386 heartbeat IPC: 1.587 cumulative IPC: 1.587 (Simulation time: 0 hr 4 min 10 sec) 
Heartbeat CPU 0 instructions: 70000000 cycles: 33967206 heartbeat IPC: 0.660162 cumulative IPC: 0.932443 (Simulation time: 0 hr 5 min 14 sec) 
Heartbeat CPU 0 instructions: 80000003 cycles: 48993753 heartbeat IPC: 0.66549 cumulative IPC: 0.822468 (Simulation time: 0 hr 6 min 18 sec) 
Heartbeat CPU 0 instructions: 90000001 cycles: 65007981 heartbeat IPC: 0.624445 cumulative IPC: 0.762053 (Simulation time: 0 hr 7 min 23 sec) 
Heartbeat CPU 0 instructions: 100000004 cycles: 80186846 heartbeat IPC: 0.658811 cumulative IPC: 0.738895 (Simulation time: 0 hr 8 min 27 sec) 
*** Reached end of trace: /gpfs/projects/bsc18/MN4/bsc18/romol/ChampSim/traces/qualcomm_srv/srv486_ap.champsimtrace.xz
Heartbeat CPU 0 instructions: 110000002 cycles: 94974224 heartbeat IPC: 0.676253 cumulative IPC: 0.727661 (Simulation time: 0 hr 9 min 30 sec) 
Heartbeat CPU 0 instructions: 120000004 cycles: 109640818 heartbeat IPC: 0.681822 cumulative IPC: 0.720739 (Simulation time: 0 hr 10 min 33 sec) 
Heartbeat CPU 0 instructions: 130000001 cycles: 127172083 heartbeat IPC: 0.57041 cumulative IPC: 0.697752 (Simulation time: 0 hr 11 min 40 sec) 
Heartbeat CPU 0 instructions: 140000001 cycles: 142509972 heartbeat IPC: 0.651981 cumulative IPC: 0.692352 (Simulation time: 0 hr 12 min 45 sec) 
Heartbeat CPU 0 instructions: 150000003 cycles: 157269968 heartbeat IPC: 0.677508 cumulative IPC: 0.690838 (Simulation time: 0 hr 13 min 48 sec) 
Simulation finished CPU 0 instructions: 100000003 cycles: 144751809 cumulative IPC: 0.690838 (Simulation time: 0 hr 13 min 48 sec) 

Simulation complete CPU 0 instructions: 100000003 cycles: 144751809 (Simulation time: 0 hr 13 min 48 sec) 


ChampSim completed all CPUs

Saving instructions large page distribution to /home/bsc/bsc018186/scratch/itp_asplos25_AE/dump/srv486_ap.pdst...
Saving data large page distribution to /home/bsc/bsc018186/scratch/itp_asplos25_AE/dump/srv486_ap.pdst...
=== Simulation ===
CPU 0 runs /gpfs/projects/bsc18/MN4/bsc18/romol/ChampSim/traces/qualcomm_srv/srv486_ap.champsimtrace.xz

Region of Interest Statistics

CPU 0 cumulative IPC: 0.690838 instructions: 100000003 cycles: 144751809
CPU 0 Branch Prediction Accuracy: 85.0579% MPKI: 28.6718 Average ROB Occupancy at Mispredict: 14.252
Branch type MPKI
BRANCH_DIRECT_JUMP: 0.93948
BRANCH_INDIRECT: 14.9905
BRANCH_CONDITIONAL: 9.28664
BRANCH_DIRECT_CALL: 1.69553
BRANCH_INDIRECT_CALL: 0.54119
BRANCH_RETURN: 1.21849

Instructions large pages: 0
Instructions small pages: 10903
Large page distribution for instructions: 0%

Data large pages: 0
Data small pages: 9814
Large page distribution for data: 0%

cpu0_L1I TOTAL       ACCESS:   34363263  HIT:   27362873  MISS:    7000390  iACCESS:   34363263  iHIT:   27362873  iMISS:    7000390  dACCESS:          0  dHIT:          0  dMISS:          0  itACCESS:          0  itHIT:          0  itMISS:          0  dtACCESS:          0  dtHIT:          0  dtMISS:          0
cpu0_L1I LOAD         ACCESS:    9295448  HIT:    7328206  MISS:    1967242  iACCESS:    9295448  iHIT:    7328206  iMISS:    1967242  dACCESS:          0  dHIT:          0  dMISS:          0  itACCESS:          0  itHIT:          0  itMISS:          0  dtACCESS:          0  dtHIT:          0  dtMISS:          0
cpu0_L1I RFO          ACCESS:          0  HIT:          0  MISS:          0  iACCESS:          0  iHIT:          0  iMISS:          0  dACCESS:          0  dHIT:          0  dMISS:          0  itACCESS:          0  itHIT:          0  itMISS:          0  dtACCESS:          0  dtHIT:          0  dtMISS:          0
cpu0_L1I PREFETCH     ACCESS:   25067815  HIT:   20034667  MISS:    5033148  iACCESS:   25067815  iHIT:   20034667  iMISS:    5033148  dACCESS:          0  dHIT:          0  dMISS:          0  itACCESS:          0  itHIT:          0  itMISS:          0  dtACCESS:          0  dtHIT:          0  dtMISS:          0
cpu0_L1I WRITE        ACCESS:          0  HIT:          0  MISS:          0  iACCESS:          0  iHIT:          0  iMISS:          0  dACCESS:          0  dHIT:          0  dMISS:          0  itACCESS:          0  itHIT:          0  itMISS:          0  dtACCESS:          0  dtHIT:          0  dtMISS:          0
cpu0_L1I TRANSLATION  ACCESS:          0  HIT:          0  MISS:          0  iACCESS:          0  iHIT:          0  iMISS:          0  dACCESS:          0  dHIT:          0  dMISS:          0  itACCESS:          0  itHIT:          0  itMISS:          0  dtACCESS:          0  dtHIT:          0  dtMISS:          0
cpu0_L1I PREFETCH  REQUESTED:   27320840  ISSUED:   27320024  CROSSED:          0  USEFUL:    1724763  USELESS:     563535
cpu0_L1I AVERAGE iMISS LATENCY: 13.347 cycles
cpu0_L1I AVERAGE dMISS LATENCY: 0 cycles
cpu0_L1I AVERAGE itMISS LATENCY: 0 cycles
cpu0_L1I AVERAGE dtMISS LATENCY: 0 cycles
cpu0_L1I PAGE CROSSINGS (TLB HIT):         0 
cpu0_L1I PAGE CROSSINGS (TLB MISS):         0 
cpu0_L1I AVERAGE MISS LATENCY: 13.347 cycles
cpu0_ITLB TOTAL       ACCESS:   28766735  HIT:   27037639  MISS:    1729096  iACCESS:   28766735  iHIT:   27037639  iMISS:    1729096  dACCESS:          0  dHIT:          0  dMISS:          0  itACCESS:          0  itHIT:          0  itMISS:          0  dtACCESS:          0  dtHIT:          0  dtMISS:          0
cpu0_ITLB LOAD         ACCESS:   28766735  HIT:   27037639  MISS:    1729096  iACCESS:   28766735  iHIT:   27037639  iMISS:    1729096  dACCESS:          0  dHIT:          0  dMISS:          0  itACCESS:          0  itHIT:          0  itMISS:          0  dtACCESS:          0  dtHIT:          0  dtMISS:          0
cpu0_ITLB RFO          ACCESS:          0  HIT:          0  MISS:          0  iACCESS:          0  iHIT:          0  iMISS:          0  dACCESS:          0  dHIT:          0  dMISS:          0  itACCESS:          0  itHIT:          0  itMISS:          0  dtACCESS:          0  dtHIT:          0  dtMISS:          0
cpu0_ITLB PREFETCH     ACCESS:          0  HIT:          0  MISS:          0  iACCESS:          0  iHIT:          0  iMISS:          0  dACCESS:          0  dHIT:          0  dMISS:          0  itACCESS:          0  itHIT:          0  itMISS:          0  dtACCESS:          0  dtHIT:          0  dtMISS:          0
cpu0_ITLB WRITE        ACCESS:          0  HIT:          0  MISS:          0  iACCESS:          0  iHIT:          0  iMISS:          0  dACCESS:          0  dHIT:          0  dMISS:          0  itACCESS:          0  itHIT:          0  itMISS:          0  dtACCESS:          0  dtHIT:          0  dtMISS:          0
cpu0_ITLB TRANSLATION  ACCESS:          0  HIT:          0  MISS:          0  iACCESS:          0  iHIT:          0  iMISS:          0  dACCESS:          0  dHIT:          0  dMISS:          0  itACCESS:          0  itHIT:          0  itMISS:          0  dtACCESS:          0  dtHIT:          0  dtMISS:          0
cpu0_ITLB PREFETCH  REQUESTED:          0  ISSUED:          0  CROSSED:          0  USEFUL:     283062  USELESS:      57400
cpu0_ITLB AVERAGE iMISS LATENCY: 2.35918 cycles
cpu0_ITLB AVERAGE dMISS LATENCY: 0 cycles
cpu0_ITLB AVERAGE itMISS LATENCY: 0 cycles
cpu0_ITLB AVERAGE dtMISS LATENCY: 0 cycles
cpu0_ITLB PAGE CROSSINGS (TLB HIT):         0 
cpu0_ITLB PAGE CROSSINGS (TLB MISS):         0 
cpu0_ITLB AVERAGE MISS LATENCY: 2.35918 cycles
cpu0_DTLB TOTAL       ACCESS:   29586790  HIT:   25435619  MISS:    4151171  iACCESS:          0  iHIT:          0  iMISS:          0  dACCESS:   29586790  dHIT:   25435619  dMISS:    4151171  itACCESS:          0  itHIT:          0  itMISS:          0  dtACCESS:          0  dtHIT:          0  dtMISS:          0
cpu0_DTLB LOAD         ACCESS:   29586790  HIT:   25435619  MISS:    4151171  iACCESS:          0  iHIT:          0  iMISS:          0  dACCESS:   29586790  dHIT:   25435619  dMISS:    4151171  itACCESS:          0  itHIT:          0  itMISS:          0  dtACCESS:          0  dtHIT:          0  dtMISS:          0
cpu0_DTLB RFO          ACCESS:          0  HIT:          0  MISS:          0  iACCESS:          0  iHIT:          0  iMISS:          0  dACCESS:          0  dHIT:          0  dMISS:          0  itACCESS:          0  itHIT:          0  itMISS:          0  dtACCESS:          0  dtHIT:          0  dtMISS:          0
cpu0_DTLB PREFETCH     ACCESS:          0  HIT:          0  MISS:          0  iACCESS:          0  iHIT:          0  iMISS:          0  dACCESS:          0  dHIT:          0  dMISS:          0  itACCESS:          0  itHIT:          0  itMISS:          0  dtACCESS:          0  dtHIT:          0  dtMISS:          0
cpu0_DTLB WRITE        ACCESS:          0  HIT:          0  MISS:          0  iACCESS:          0  iHIT:          0  iMISS:          0  dACCESS:          0  dHIT:          0  dMISS:          0  itACCESS:          0  itHIT:          0  itMISS:          0  dtACCESS:          0  dtHIT:          0  dtMISS:          0
cpu0_DTLB TRANSLATION  ACCESS:          0  HIT:          0  MISS:          0  iACCESS:          0  iHIT:          0  iMISS:          0  dACCESS:          0  dHIT:          0  dMISS:          0  itACCESS:          0  itHIT:          0  itMISS:          0  dtACCESS:          0  dtHIT:          0  dtMISS:          0
cpu0_DTLB PREFETCH  REQUESTED:          0  ISSUED:          0  CROSSED:          0  USEFUL:          0  USELESS:          0
cpu0_DTLB AVERAGE iMISS LATENCY: 0 cycles
cpu0_DTLB AVERAGE dMISS LATENCY: 9.63625 cycles
cpu0_DTLB AVERAGE itMISS LATENCY: 0 cycles
cpu0_DTLB AVERAGE dtMISS LATENCY: 0 cycles
cpu0_DTLB PAGE CROSSINGS (TLB HIT):         0 
cpu0_DTLB PAGE CROSSINGS (TLB MISS):         0 
cpu0_DTLB AVERAGE MISS LATENCY: 9.63625 cycles
cpu0_STLB TOTAL       ACCESS:    2534035  HIT:    2402441  MISS:     131594  iACCESS:     340466  iHIT:     331386  iMISS:       9080  dACCESS:    2193569  dHIT:    2071055  dMISS:     122514  itACCESS:          0  itHIT:          0  itMISS:          0  dtACCESS:          0  dtHIT:          0  dtMISS:          0
cpu0_STLB LOAD         ACCESS:    2534035  HIT:    2402441  MISS:     131594  iACCESS:     340466  iHIT:     331386  iMISS:       9080  dACCESS:    2193569  dHIT:    2071055  dMISS:     122514  itACCESS:          0  itHIT:          0  itMISS:          0  dtACCESS:          0  dtHIT:          0  dtMISS:          0
cpu0_STLB RFO          ACCESS:          0  HIT:          0  MISS:          0  iACCESS:          0  iHIT:          0  iMISS:          0  dACCESS:          0  dHIT:          0  dMISS:          0  itACCESS:          0  itHIT:          0  itMISS:          0  dtACCESS:          0  dtHIT:          0  dtMISS:          0
cpu0_STLB PREFETCH     ACCESS:          0  HIT:          0  MISS:          0  iACCESS:          0  iHIT:          0  iMISS:          0  dACCESS:          0  dHIT:          0  dMISS:          0  itACCESS:          0  itHIT:          0  itMISS:          0  dtACCESS:          0  dtHIT:          0  dtMISS:          0
cpu0_STLB WRITE        ACCESS:          0  HIT:          0  MISS:          0  iACCESS:          0  iHIT:          0  iMISS:          0  dACCESS:          0  dHIT:          0  dMISS:          0  itACCESS:          0  itHIT:          0  itMISS:          0  dtACCESS:          0  dtHIT:          0  dtMISS:          0
cpu0_STLB TRANSLATION  ACCESS:          0  HIT:          0  MISS:          0  iACCESS:          0  iHIT:          0  iMISS:          0  dACCESS:          0  dHIT:          0  dMISS:          0  itACCESS:          0  itHIT:          0  itMISS:          0  dtACCESS:          0  dtHIT:          0  dtMISS:          0
cpu0_STLB PREFETCH  REQUESTED:          0  ISSUED:          0  CROSSED:          0  USEFUL:          0  USELESS:          0
cpu0_STLB AVERAGE iMISS LATENCY: 10.9218 cycles
cpu0_STLB AVERAGE dMISS LATENCY: 169.365 cycles
cpu0_STLB AVERAGE itMISS LATENCY: 0 cycles
cpu0_STLB AVERAGE dtMISS LATENCY: 0 cycles
cpu0_STLB PAGE CROSSINGS (TLB HIT):         0 
cpu0_STLB PAGE CROSSINGS (TLB MISS):         0 
cpu0_STLB AVERAGE MISS LATENCY: 180.287 cycles
cpu0_L1D TOTAL       ACCESS:   44397754  HIT:   38672422  MISS:    5725332  iACCESS:          0  iHIT:          0  iMISS:          0  dACCESS:   44202734  dHIT:   38660049  dMISS:    5542685  itACCESS:      10501  itHIT:       1112  itMISS:       9389  dtACCESS:     184519  dtHIT:      11261  dtMISS:     173258
cpu0_L1D LOAD         ACCESS:   21239344  HIT:   18076873  MISS:    3162471  iACCESS:          0  iHIT:          0  iMISS:          0  dACCESS:   21239344  dHIT:   18076873  dMISS:    3162471  itACCESS:          0  itHIT:          0  itMISS:          0  dtACCESS:          0  dtHIT:          0  dtMISS:          0
cpu0_L1D RFO          ACCESS:          0  HIT:          0  MISS:          0  iACCESS:          0  iHIT:          0  iMISS:          0  dACCESS:          0  dHIT:          0  dMISS:          0  itACCESS:          0  itHIT:          0  itMISS:          0  dtACCESS:          0  dtHIT:          0  dtMISS:          0
cpu0_L1D PREFETCH     ACCESS:   12849142  HIT:   11152680  MISS:    1696462  iACCESS:          0  iHIT:          0  iMISS:          0  dACCESS:   12849142  dHIT:   11152680  dMISS:    1696462  itACCESS:          0  itHIT:          0  itMISS:          0  dtACCESS:          0  dtHIT:          0  dtMISS:          0
cpu0_L1D WRITE        ACCESS:   10114248  HIT:    9430496  MISS:     683752  iACCESS:          0  iHIT:          0  iMISS:          0  dACCESS:   10114248  dHIT:    9430496  dMISS:     683752  itACCESS:          0  itHIT:          0  itMISS:          0  dtACCESS:          0  dtHIT:          0  dtMISS:          0
cpu0_L1D TRANSLATION  ACCESS:     195020  HIT:      12373  MISS:     182647  iACCESS:          0  iHIT:          0  iMISS:          0  dACCESS:          0  dHIT:          0  dMISS:          0  itACCESS:      10501  itHIT:       1112  itMISS:       9389  dtACCESS:     184519  dtHIT:      11261  dtMISS:     173258
cpu0_L1D PREFETCH  REQUESTED:   21239344  ISSUED:   17397748  CROSSED:          0  USEFUL:     272471  USELESS:     877334
cpu0_L1D AVERAGE iMISS LATENCY: 0 cycles
cpu0_L1D AVERAGE dMISS LATENCY: 23.3481 cycles
cpu0_L1D AVERAGE itMISS LATENCY: 0.230312 cycles
cpu0_L1D AVERAGE dtMISS LATENCY: 3.46235 cycles
cpu0_L1D PAGE CROSSINGS (TLB HIT):         0 
cpu0_L1D PAGE CROSSINGS (TLB MISS):         0 
cpu0_L1D AVERAGE MISS LATENCY: 27.0408 cycles
cpu0_L2C TOTAL       ACCESS:    8175359  HIT:    5529927  MISS:    2645432  iACCESS:    2957590  iHIT:    1984264  iMISS:     973326  dACCESS:    5045320  dHIT:    3518180  dMISS:    1527140  itACCESS:       9389  itHIT:       1588  itMISS:       7801  dtACCESS:     163060  dtHIT:      25895  dtMISS:     137165
cpu0_L2C LOAD         ACCESS:    3109060  HIT:    2497314  MISS:     611746  iACCESS:     704096  iHIT:     497874  iMISS:     206222  dACCESS:    2404964  dHIT:    1999440  dMISS:     405524  itACCESS:          0  itHIT:          0  itMISS:          0  dtACCESS:          0  dtHIT:          0  dtMISS:          0
cpu0_L2C RFO          ACCESS:     179547  HIT:      88045  MISS:      91502  iACCESS:          0  iHIT:          0  iMISS:          0  dACCESS:     179547  dHIT:      88045  dMISS:      91502  itACCESS:          0  itHIT:          0  itMISS:          0  dtACCESS:          0  dtHIT:          0  dtMISS:          0
cpu0_L2C PREFETCH     ACCESS:    4444744  HIT:    2648543  MISS:    1796201  iACCESS:    2253494  iHIT:    1486390  iMISS:     767104  dACCESS:    2191250  dHIT:    1162153  dMISS:    1029097  itACCESS:          0  itHIT:          0  itMISS:          0  dtACCESS:          0  dtHIT:          0  dtMISS:          0
cpu0_L2C WRITE        ACCESS:     269559  HIT:     268542  MISS:       1017  iACCESS:          0  iHIT:          0  iMISS:          0  dACCESS:     269559  dHIT:     268542  dMISS:       1017  itACCESS:          0  itHIT:          0  itMISS:          0  dtACCESS:          0  dtHIT:          0  dtMISS:          0
cpu0_L2C TRANSLATION  ACCESS:     172449  HIT:      27483  MISS:     144966  iACCESS:          0  iHIT:          0  iMISS:          0  dACCESS:          0  dHIT:          0  dMISS:          0  itACCESS:       9389  itHIT:       1588  itMISS:       7801  dtACCESS:     163060  dtHIT:      25895  dtMISS:     137165
cpu0_L2C PREFETCH  REQUESTED:    1274070  ISSUED:    1274059  CROSSED:          0  USEFUL:     294167  USELESS:     209460
cpu0_L2C AVERAGE iMISS LATENCY: 25.2041 cycles
cpu0_L2C AVERAGE dMISS LATENCY: 49.4735 cycles
cpu0_L2C AVERAGE itMISS LATENCY: 0.463415 cycles
cpu0_L2C AVERAGE dtMISS LATENCY: 6.88226 cycles
cpu0_L2C PAGE CROSSINGS (TLB HIT):         0 
cpu0_L2C PAGE CROSSINGS (TLB MISS):         0 
cpu0_L2C AVERAGE MISS LATENCY: 82.0233 cycles
LLC TOTAL       ACCESS:    2681031  HIT:    1652085  MISS:    1028946  iACCESS:     924486  iHIT:     606833  iMISS:     317653  dACCESS:    1611579  dHIT:     991528  dMISS:     620051  itACCESS:       7801  itHIT:       1723  itMISS:       6078  dtACCESS:     137165  dtHIT:      52001  dtMISS:      85164
LLC LOAD         ACCESS:     609879  HIT:     394500  MISS:     215379  iACCESS:     205145  iHIT:     138104  iMISS:      67041  dACCESS:     404734  dHIT:     256396  dMISS:     148338  itACCESS:          0  itHIT:          0  itMISS:          0  dtACCESS:          0  dtHIT:          0  dtMISS:          0
LLC RFO          ACCESS:      91481  HIT:      39500  MISS:      51981  iACCESS:          0  iHIT:          0  iMISS:          0  dACCESS:      91481  dHIT:      39500  dMISS:      51981  itACCESS:          0  itHIT:          0  itMISS:          0  dtACCESS:          0  dtHIT:          0  dtMISS:          0
LLC PREFETCH     ACCESS:    1698779  HIT:    1042765  MISS:     656014  iACCESS:     719341  iHIT:     468729  iMISS:     250612  dACCESS:     979438  dHIT:     574036  dMISS:     405402  itACCESS:          0  itHIT:          0  itMISS:          0  dtACCESS:          0  dtHIT:          0  dtMISS:          0
LLC WRITE        ACCESS:     135926  HIT:     121596  MISS:      14330  iACCESS:          0  iHIT:          0  iMISS:          0  dACCESS:     135926  dHIT:     121596  dMISS:      14330  itACCESS:          0  itHIT:          0  itMISS:          0  dtACCESS:          0  dtHIT:          0  dtMISS:          0
LLC TRANSLATION  ACCESS:     144966  HIT:      53724  MISS:      91242  iACCESS:          0  iHIT:          0  iMISS:          0  dACCESS:          0  dHIT:          0  dMISS:          0  itACCESS:       7801  itHIT:       1723  itMISS:       6078  dtACCESS:     137165  dtHIT:      52001  dtMISS:      85164
LLC PREFETCH  REQUESTED:          0  ISSUED:          0  CROSSED:          0  USEFUL:          0  USELESS:          0
LLC AVERAGE iMISS LATENCY: 47.3304 cycles
LLC AVERAGE dMISS LATENCY: 99.5486 cycles
LLC AVERAGE itMISS LATENCY: 1.04197 cycles
LLC AVERAGE dtMISS LATENCY: 15.0861 cycles
LLC PAGE CROSSINGS (TLB HIT):         0 
LLC PAGE CROSSINGS (TLB MISS):         0 
LLC AVERAGE MISS LATENCY: 163.007 cycles

PageTableWalker TOTAL       ACCESS:      71413  
PageTableWalker AVERAGE LATENCY: 5.56426 cycles
PageTableWalker TOTAL LATENCY: 397360 cycles

DRAM Statistics
Channel 0
 RQ ROW_BUFFER_HIT:     269116
  ROW_BUFFER_MISS:     744785
 AVG DBUS CONGESTED CYCLE:    3.67155
 WQ ROW_BUFFER_HIT:      20777
  ROW_BUFFER_MISS:      34510  FULL:          0

