last_page:0x200000000000000
VMEM_RES_CAP:0x100000
PAGE_SIZE:4096
LOG2_PAGE_SIZE:12
LOG2_PAGE_TABLE_SIZE:9
page_table_levels:5
WARNING: physical memory size is smaller than virtual memory size
FDiP enabled with aggresivity 16

*** ChampSim Multicore Out-of-Order Simulator ***

Warmup Instructions: 50000000
Simulation Instructions: 100000000
Number of CPUs: 1
Small page size: 4096
Large page size: 2097152

CPU 0 Bimodal branch predictor
Basic BTB sets: 1024 ways: 8 indirect buffer size: 4096 RAS size: 64
Instruction page size distrubution: 0
Loading instruction page size distribution from /home/bsc/bsc018186/scratch/itp_asplos25_AE/dump/srv420_ap.pdst
Data page size distrubution: 0
Loading data page size distribution from /home/bsc/bsc018186/scratch/itp_asplos25_AE/dump/srv420_ap.pdst
cpu0_L2C IP-based stride prefetcher
cpu0_L2C is using PTP replacement policy:
	TLB_STRESS_THRESHOLD:0
	PTE_EVICTION_RATIO:0
cpu0_L1D next line prefetcher
cpu0_L1I next line prefetcher
Off-chip DRAM Size: 4 GiB Channels: 1 Width: 64-bit Data Rate: 3200 MT/s
Heartbeat CPU 0 instructions: 10000003 cycles: 2500159 heartbeat IPC: 3.99975 cumulative IPC: 3.99975 (Simulation time: 0 hr 0 min 38 sec) 
Heartbeat CPU 0 instructions: 20000002 cycles: 5000295 heartbeat IPC: 3.99979 cumulative IPC: 3.99977 (Simulation time: 0 hr 1 min 18 sec) 
Heartbeat CPU 0 instructions: 30000001 cycles: 7500318 heartbeat IPC: 3.99997 cumulative IPC: 3.99984 (Simulation time: 0 hr 1 min 59 sec) 
Heartbeat CPU 0 instructions: 40000000 cycles: 10000320 heartbeat IPC: 4 cumulative IPC: 3.99988 (Simulation time: 0 hr 2 min 40 sec) 
Heartbeat CPU 0 instructions: 50000002 cycles: 12500321 heartbeat IPC: 4 cumulative IPC: 3.9999 (Simulation time: 0 hr 3 min 21 sec) 
Warmup finished CPU 0 instructions: 50000002 cycles: 12500322 cumulative IPC: 3.9999 (Simulation time: 0 hr 3 min 21 sec) 

Warmup complete CPU 0 instructions: 50000002 cycles: 12500322 (Simulation time: 0 hr 3 min 21 sec) 

Heartbeat CPU 0 instructions: 60000002 cycles: 26863171 heartbeat IPC: 0.696241 cumulative IPC: 0.696241 (Simulation time: 0 hr 4 min 26 sec) 
Heartbeat CPU 0 instructions: 70000003 cycles: 40921738 heartbeat IPC: 0.711311 cumulative IPC: 0.703695 (Simulation time: 0 hr 5 min 29 sec) 
Heartbeat CPU 0 instructions: 80000000 cycles: 54726740 heartbeat IPC: 0.724375 cumulative IPC: 0.710456 (Simulation time: 0 hr 6 min 33 sec) 
Heartbeat CPU 0 instructions: 90000001 cycles: 69227140 heartbeat IPC: 0.689637 cumulative IPC: 0.705134 (Simulation time: 0 hr 7 min 37 sec) 
Heartbeat CPU 0 instructions: 100000000 cycles: 83396648 heartbeat IPC: 0.705741 cumulative IPC: 0.705256 (Simulation time: 0 hr 8 min 41 sec) 
*** Reached end of trace: /gpfs/projects/bsc18/MN4/bsc18/romol/ChampSim/traces/qualcomm_srv/srv420_ap.champsimtrace.xz
Heartbeat CPU 0 instructions: 110000001 cycles: 97646865 heartbeat IPC: 0.701744 cumulative IPC: 0.704668 (Simulation time: 0 hr 9 min 45 sec) 
Heartbeat CPU 0 instructions: 120000002 cycles: 111864321 heartbeat IPC: 0.703361 cumulative IPC: 0.704481 (Simulation time: 0 hr 10 min 49 sec) 
Heartbeat CPU 0 instructions: 130000001 cycles: 125813234 heartbeat IPC: 0.716902 cumulative IPC: 0.70601 (Simulation time: 0 hr 11 min 53 sec) 
Heartbeat CPU 0 instructions: 140000001 cycles: 139859317 heartbeat IPC: 0.711943 cumulative IPC: 0.706664 (Simulation time: 0 hr 12 min 55 sec) 
Heartbeat CPU 0 instructions: 150000001 cycles: 153815531 heartbeat IPC: 0.716527 cumulative IPC: 0.707638 (Simulation time: 0 hr 13 min 57 sec) 
Simulation finished CPU 0 instructions: 100000004 cycles: 141315211 cumulative IPC: 0.707638 (Simulation time: 0 hr 13 min 57 sec) 

Simulation complete CPU 0 instructions: 100000004 cycles: 141315211 (Simulation time: 0 hr 13 min 57 sec) 


ChampSim completed all CPUs

Saving instructions large page distribution to /home/bsc/bsc018186/scratch/itp_asplos25_AE/dump/srv420_ap.pdst...
Saving data large page distribution to /home/bsc/bsc018186/scratch/itp_asplos25_AE/dump/srv420_ap.pdst...
=== Simulation ===
CPU 0 runs /gpfs/projects/bsc18/MN4/bsc18/romol/ChampSim/traces/qualcomm_srv/srv420_ap.champsimtrace.xz

Region of Interest Statistics

CPU 0 cumulative IPC: 0.707638 instructions: 100000004 cycles: 141315211
CPU 0 Branch Prediction Accuracy: 83.3428% MPKI: 29.8783 Average ROB Occupancy at Mispredict: 12.3712
Branch type MPKI
BRANCH_DIRECT_JUMP: 0.96063
BRANCH_INDIRECT: 15.505
BRANCH_CONDITIONAL: 9.75105
BRANCH_DIRECT_CALL: 1.83375
BRANCH_INDIRECT_CALL: 0.49639
BRANCH_RETURN: 1.33146

Instructions large pages: 0
Instructions small pages: 9814
Large page distribution for instructions: 0%

Data large pages: 0
Data small pages: 8973
Large page distribution for data: 0%

cpu0_L1I TOTAL       ACCESS:   35129457  HIT:   26516200  MISS:    8613257  iACCESS:   35129457  iHIT:   26516200  iMISS:    8613257  dACCESS:          0  dHIT:          0  dMISS:          0  itACCESS:          0  itHIT:          0  itMISS:          0  dtACCESS:          0  dtHIT:          0  dtMISS:          0
cpu0_L1I LOAD         ACCESS:   10238467  HIT:    7831877  MISS:    2406590  iACCESS:   10238467  iHIT:    7831877  iMISS:    2406590  dACCESS:          0  dHIT:          0  dMISS:          0  itACCESS:          0  itHIT:          0  itMISS:          0  dtACCESS:          0  dtHIT:          0  dtMISS:          0
cpu0_L1I RFO          ACCESS:          0  HIT:          0  MISS:          0  iACCESS:          0  iHIT:          0  iMISS:          0  dACCESS:          0  dHIT:          0  dMISS:          0  itACCESS:          0  itHIT:          0  itMISS:          0  dtACCESS:          0  dtHIT:          0  dtMISS:          0
cpu0_L1I PREFETCH     ACCESS:   24890990  HIT:   18684323  MISS:    6206667  iACCESS:   24890990  iHIT:   18684323  iMISS:    6206667  dACCESS:          0  dHIT:          0  dMISS:          0  itACCESS:          0  itHIT:          0  itMISS:          0  dtACCESS:          0  dtHIT:          0  dtMISS:          0
cpu0_L1I WRITE        ACCESS:          0  HIT:          0  MISS:          0  iACCESS:          0  iHIT:          0  iMISS:          0  dACCESS:          0  dHIT:          0  dMISS:          0  itACCESS:          0  itHIT:          0  itMISS:          0  dtACCESS:          0  dtHIT:          0  dtMISS:          0
cpu0_L1I TRANSLATION  ACCESS:          0  HIT:          0  MISS:          0  iACCESS:          0  iHIT:          0  iMISS:          0  dACCESS:          0  dHIT:          0  dMISS:          0  itACCESS:          0  itHIT:          0  itMISS:          0  dtACCESS:          0  dtHIT:          0  dtMISS:          0
cpu0_L1I PREFETCH  REQUESTED:   27113695  ISSUED:   27111651  CROSSED:          0  USEFUL:    1937668  USELESS:     635290
cpu0_L1I AVERAGE iMISS LATENCY: 13.8372 cycles
cpu0_L1I AVERAGE dMISS LATENCY: 0 cycles
cpu0_L1I AVERAGE itMISS LATENCY: 0 cycles
cpu0_L1I AVERAGE dtMISS LATENCY: 0 cycles
cpu0_L1I PAGE CROSSINGS (TLB HIT):         0 
cpu0_L1I PAGE CROSSINGS (TLB MISS):         0 
cpu0_L1I AVERAGE MISS LATENCY: 13.8372 cycles
cpu0_ITLB TOTAL       ACCESS:   29027518  HIT:   27034757  MISS:    1992761  iACCESS:   29027518  iHIT:   27034757  iMISS:    1992761  dACCESS:          0  dHIT:          0  dMISS:          0  itACCESS:          0  itHIT:          0  itMISS:          0  dtACCESS:          0  dtHIT:          0  dtMISS:          0
cpu0_ITLB LOAD         ACCESS:   29027518  HIT:   27034757  MISS:    1992761  iACCESS:   29027518  iHIT:   27034757  iMISS:    1992761  dACCESS:          0  dHIT:          0  dMISS:          0  itACCESS:          0  itHIT:          0  itMISS:          0  dtACCESS:          0  dtHIT:          0  dtMISS:          0
cpu0_ITLB RFO          ACCESS:          0  HIT:          0  MISS:          0  iACCESS:          0  iHIT:          0  iMISS:          0  dACCESS:          0  dHIT:          0  dMISS:          0  itACCESS:          0  itHIT:          0  itMISS:          0  dtACCESS:          0  dtHIT:          0  dtMISS:          0
cpu0_ITLB PREFETCH     ACCESS:          0  HIT:          0  MISS:          0  iACCESS:          0  iHIT:          0  iMISS:          0  dACCESS:          0  dHIT:          0  dMISS:          0  itACCESS:          0  itHIT:          0  itMISS:          0  dtACCESS:          0  dtHIT:          0  dtMISS:          0
cpu0_ITLB WRITE        ACCESS:          0  HIT:          0  MISS:          0  iACCESS:          0  iHIT:          0  iMISS:          0  dACCESS:          0  dHIT:          0  dMISS:          0  itACCESS:          0  itHIT:          0  itMISS:          0  dtACCESS:          0  dtHIT:          0  dtMISS:          0
cpu0_ITLB TRANSLATION  ACCESS:          0  HIT:          0  MISS:          0  iACCESS:          0  iHIT:          0  iMISS:          0  dACCESS:          0  dHIT:          0  dMISS:          0  itACCESS:          0  itHIT:          0  itMISS:          0  dtACCESS:          0  dtHIT:          0  dtMISS:          0
cpu0_ITLB PREFETCH  REQUESTED:          0  ISSUED:          0  CROSSED:          0  USEFUL:     325957  USELESS:      62522
cpu0_ITLB AVERAGE iMISS LATENCY: 2.62391 cycles
cpu0_ITLB AVERAGE dMISS LATENCY: 0 cycles
cpu0_ITLB AVERAGE itMISS LATENCY: 0 cycles
cpu0_ITLB AVERAGE dtMISS LATENCY: 0 cycles
cpu0_ITLB PAGE CROSSINGS (TLB HIT):         0 
cpu0_ITLB PAGE CROSSINGS (TLB MISS):         0 
cpu0_ITLB AVERAGE MISS LATENCY: 2.62391 cycles
cpu0_DTLB TOTAL       ACCESS:   27718145  HIT:   25676178  MISS:    2041967  iACCESS:          0  iHIT:          0  iMISS:          0  dACCESS:   27718145  dHIT:   25676178  dMISS:    2041967  itACCESS:          0  itHIT:          0  itMISS:          0  dtACCESS:          0  dtHIT:          0  dtMISS:          0
cpu0_DTLB LOAD         ACCESS:   27718145  HIT:   25676178  MISS:    2041967  iACCESS:          0  iHIT:          0  iMISS:          0  dACCESS:   27718145  dHIT:   25676178  dMISS:    2041967  itACCESS:          0  itHIT:          0  itMISS:          0  dtACCESS:          0  dtHIT:          0  dtMISS:          0
cpu0_DTLB RFO          ACCESS:          0  HIT:          0  MISS:          0  iACCESS:          0  iHIT:          0  iMISS:          0  dACCESS:          0  dHIT:          0  dMISS:          0  itACCESS:          0  itHIT:          0  itMISS:          0  dtACCESS:          0  dtHIT:          0  dtMISS:          0
cpu0_DTLB PREFETCH     ACCESS:          0  HIT:          0  MISS:          0  iACCESS:          0  iHIT:          0  iMISS:          0  dACCESS:          0  dHIT:          0  dMISS:          0  itACCESS:          0  itHIT:          0  itMISS:          0  dtACCESS:          0  dtHIT:          0  dtMISS:          0
cpu0_DTLB WRITE        ACCESS:          0  HIT:          0  MISS:          0  iACCESS:          0  iHIT:          0  iMISS:          0  dACCESS:          0  dHIT:          0  dMISS:          0  itACCESS:          0  itHIT:          0  itMISS:          0  dtACCESS:          0  dtHIT:          0  dtMISS:          0
cpu0_DTLB TRANSLATION  ACCESS:          0  HIT:          0  MISS:          0  iACCESS:          0  iHIT:          0  iMISS:          0  dACCESS:          0  dHIT:          0  dMISS:          0  itACCESS:          0  itHIT:          0  itMISS:          0  dtACCESS:          0  dtHIT:          0  dtMISS:          0
cpu0_DTLB PREFETCH  REQUESTED:          0  ISSUED:          0  CROSSED:          0  USEFUL:          0  USELESS:          0
cpu0_DTLB AVERAGE iMISS LATENCY: 0 cycles
cpu0_DTLB AVERAGE dMISS LATENCY: 8.13748 cycles
cpu0_DTLB AVERAGE itMISS LATENCY: 0 cycles
cpu0_DTLB AVERAGE dtMISS LATENCY: 0 cycles
cpu0_DTLB PAGE CROSSINGS (TLB HIT):         0 
cpu0_DTLB PAGE CROSSINGS (TLB MISS):         0 
cpu0_DTLB AVERAGE MISS LATENCY: 8.13748 cycles
cpu0_STLB TOTAL       ACCESS:    1555861  HIT:    1393550  MISS:     162311  iACCESS:     388494  iHIT:     331813  iMISS:      56681  dACCESS:    1167367  dHIT:    1061737  dMISS:     105630  itACCESS:          0  itHIT:          0  itMISS:          0  dtACCESS:          0  dtHIT:          0  dtMISS:          0
cpu0_STLB LOAD         ACCESS:    1555861  HIT:    1393550  MISS:     162311  iACCESS:     388494  iHIT:     331813  iMISS:      56681  dACCESS:    1167367  dHIT:    1061737  dMISS:     105630  itACCESS:          0  itHIT:          0  itMISS:          0  dtACCESS:          0  dtHIT:          0  dtMISS:          0
cpu0_STLB RFO          ACCESS:          0  HIT:          0  MISS:          0  iACCESS:          0  iHIT:          0  iMISS:          0  dACCESS:          0  dHIT:          0  dMISS:          0  itACCESS:          0  itHIT:          0  itMISS:          0  dtACCESS:          0  dtHIT:          0  dtMISS:          0
cpu0_STLB PREFETCH     ACCESS:          0  HIT:          0  MISS:          0  iACCESS:          0  iHIT:          0  iMISS:          0  dACCESS:          0  dHIT:          0  dMISS:          0  itACCESS:          0  itHIT:          0  itMISS:          0  dtACCESS:          0  dtHIT:          0  dtMISS:          0
cpu0_STLB WRITE        ACCESS:          0  HIT:          0  MISS:          0  iACCESS:          0  iHIT:          0  iMISS:          0  dACCESS:          0  dHIT:          0  dMISS:          0  itACCESS:          0  itHIT:          0  itMISS:          0  dtACCESS:          0  dtHIT:          0  dtMISS:          0
cpu0_STLB TRANSLATION  ACCESS:          0  HIT:          0  MISS:          0  iACCESS:          0  iHIT:          0  iMISS:          0  dACCESS:          0  dHIT:          0  dMISS:          0  itACCESS:          0  itHIT:          0  itMISS:          0  dtACCESS:          0  dtHIT:          0  dtMISS:          0
cpu0_STLB PREFETCH  REQUESTED:          0  ISSUED:          0  CROSSED:          0  USEFUL:          0  USELESS:          0
cpu0_STLB AVERAGE iMISS LATENCY: 13.3333 cycles
cpu0_STLB AVERAGE dMISS LATENCY: 45.0196 cycles
cpu0_STLB AVERAGE itMISS LATENCY: 0 cycles
cpu0_STLB AVERAGE dtMISS LATENCY: 0 cycles
cpu0_STLB PAGE CROSSINGS (TLB HIT):         0 
cpu0_STLB PAGE CROSSINGS (TLB MISS):         0 
cpu0_STLB AVERAGE MISS LATENCY: 58.3528 cycles
cpu0_L1D TOTAL       ACCESS:   41454904  HIT:   37812356  MISS:    3642548  iACCESS:          0  iHIT:          0  iMISS:          0  dACCESS:   41228537  dHIT:   37793325  dMISS:    3435212  itACCESS:      61436  itHIT:       9204  itMISS:      52232  dtACCESS:     164931  dtHIT:       9827  dtMISS:     155104
cpu0_L1D LOAD         ACCESS:   18958394  HIT:   17398712  MISS:    1559682  iACCESS:          0  iHIT:          0  iMISS:          0  dACCESS:   18958394  dHIT:   17398712  dMISS:    1559682  itACCESS:          0  itHIT:          0  itMISS:          0  dtACCESS:          0  dtHIT:          0  dtMISS:          0
cpu0_L1D RFO          ACCESS:          0  HIT:          0  MISS:          0  iACCESS:          0  iHIT:          0  iMISS:          0  dACCESS:          0  dHIT:          0  dMISS:          0  itACCESS:          0  itHIT:          0  itMISS:          0  dtACCESS:          0  dtHIT:          0  dtMISS:          0
cpu0_L1D PREFETCH     ACCESS:   12135484  HIT:   10707771  MISS:    1427713  iACCESS:          0  iHIT:          0  iMISS:          0  dACCESS:   12135484  dHIT:   10707771  dMISS:    1427713  itACCESS:          0  itHIT:          0  itMISS:          0  dtACCESS:          0  dtHIT:          0  dtMISS:          0
cpu0_L1D WRITE        ACCESS:   10134659  HIT:    9686842  MISS:     447817  iACCESS:          0  iHIT:          0  iMISS:          0  dACCESS:   10134659  dHIT:    9686842  dMISS:     447817  itACCESS:          0  itHIT:          0  itMISS:          0  dtACCESS:          0  dtHIT:          0  dtMISS:          0
cpu0_L1D TRANSLATION  ACCESS:     226367  HIT:      19031  MISS:     207336  iACCESS:          0  iHIT:          0  iMISS:          0  dACCESS:          0  dHIT:          0  dMISS:          0  itACCESS:      61436  itHIT:       9204  itMISS:      52232  dtACCESS:     164931  dtHIT:       9827  dtMISS:     155104
cpu0_L1D PREFETCH  REQUESTED:   18958394  ISSUED:   16896560  CROSSED:          0  USEFUL:     309696  USELESS:     710732
cpu0_L1D AVERAGE iMISS LATENCY: 0 cycles
cpu0_L1D AVERAGE dMISS LATENCY: 34.4364 cycles
cpu0_L1D AVERAGE itMISS LATENCY: 0.46001 cycles
cpu0_L1D AVERAGE dtMISS LATENCY: 1.39304 cycles
cpu0_L1D PAGE CROSSINGS (TLB HIT):         0 
cpu0_L1D PAGE CROSSINGS (TLB MISS):         0 
cpu0_L1D AVERAGE MISS LATENCY: 36.2895 cycles
cpu0_L2C TOTAL       ACCESS:    7046963  HIT:    1236381  MISS:    5810582  iACCESS:    3330280  iHIT:     702250  iMISS:    2628030  dACCESS:    3524628  dHIT:     375082  dMISS:    3149546  itACCESS:      52232  itHIT:      43268  itMISS:       8964  dtACCESS:     139823  dtHIT:     115781  dtMISS:      24042
cpu0_L2C LOAD         ACCESS:    1739684  HIT:     138521  MISS:    1601163  iACCESS:     795252  iHIT:     101314  iMISS:     693938  dACCESS:     944432  dHIT:      37207  dMISS:     907225  itACCESS:          0  itHIT:          0  itMISS:          0  dtACCESS:          0  dtHIT:          0  dtMISS:          0
cpu0_L2C RFO          ACCESS:     156196  HIT:       7129  MISS:     149067  iACCESS:          0  iHIT:          0  iMISS:          0  dACCESS:     156196  dHIT:       7129  dMISS:     149067  itACCESS:          0  itHIT:          0  itMISS:          0  dtACCESS:          0  dtHIT:          0  dtMISS:          0
cpu0_L2C PREFETCH     ACCESS:    4672728  HIT:     871191  MISS:    3801537  iACCESS:    2535028  iHIT:     600936  iMISS:    1934092  dACCESS:    2137700  dHIT:     270255  dMISS:    1867445  itACCESS:          0  itHIT:          0  itMISS:          0  dtACCESS:          0  dtHIT:          0  dtMISS:          0
cpu0_L2C WRITE        ACCESS:     286300  HIT:      60491  MISS:     225809  iACCESS:          0  iHIT:          0  iMISS:          0  dACCESS:     286300  dHIT:      60491  dMISS:     225809  itACCESS:          0  itHIT:          0  itMISS:          0  dtACCESS:          0  dtHIT:          0  dtMISS:          0
cpu0_L2C TRANSLATION  ACCESS:     192055  HIT:     159049  MISS:      33006  iACCESS:          0  iHIT:          0  iMISS:          0  dACCESS:          0  dHIT:          0  dMISS:          0  itACCESS:      52232  itHIT:      43268  itMISS:       8964  dtACCESS:     139823  dtHIT:     115781  dtMISS:      24042
cpu0_L2C PREFETCH  REQUESTED:    1407122  ISSUED:    1407122  CROSSED:          0  USEFUL:     423721  USELESS:     399308
cpu0_L2C AVERAGE iMISS LATENCY: 15.1315 cycles
cpu0_L2C AVERAGE dMISS LATENCY: 25.0995 cycles
cpu0_L2C AVERAGE itMISS LATENCY: 0.205742 cycles
cpu0_L2C AVERAGE dtMISS LATENCY: 0.651158 cycles
cpu0_L2C PAGE CROSSINGS (TLB HIT):         0 
cpu0_L2C PAGE CROSSINGS (TLB MISS):         0 
cpu0_L2C AVERAGE MISS LATENCY: 41.0878 cycles
LLC TOTAL       ACCESS:    5728318  HIT:    4894705  MISS:     833613  iACCESS:    2566420  iHIT:    2307190  iMISS:     259230  dACCESS:    3128892  dHIT:    2578901  dMISS:     549991  itACCESS:       8964  itHIT:       3080  itMISS:       5884  dtACCESS:      24042  dtHIT:       5534  dtMISS:      18508
LLC LOAD         ACCESS:    1599158  HIT:    1405397  MISS:     193761  iACCESS:     692284  iHIT:     636673  iMISS:      55611  dACCESS:     906874  dHIT:     768724  dMISS:     138150  itACCESS:          0  itHIT:          0  itMISS:          0  dtACCESS:          0  dtHIT:          0  dtMISS:          0
LLC RFO          ACCESS:     149065  HIT:     108665  MISS:      40400  iACCESS:          0  iHIT:          0  iMISS:          0  dACCESS:     149065  dHIT:     108665  dMISS:      40400  itACCESS:          0  itHIT:          0  itMISS:          0  dtACCESS:          0  dtHIT:          0  dtMISS:          0
LLC PREFETCH     ACCESS:    3685136  HIT:    3110079  MISS:     575057  iACCESS:    1874136  iHIT:    1670517  iMISS:     203619  dACCESS:    1811000  dHIT:    1439562  dMISS:     371438  itACCESS:          0  itHIT:          0  itMISS:          0  dtACCESS:          0  dtHIT:          0  dtMISS:          0
LLC WRITE        ACCESS:     261953  HIT:     261950  MISS:          3  iACCESS:          0  iHIT:          0  iMISS:          0  dACCESS:     261953  dHIT:     261950  dMISS:          3  itACCESS:          0  itHIT:          0  itMISS:          0  dtACCESS:          0  dtHIT:          0  dtMISS:          0
LLC TRANSLATION  ACCESS:      33006  HIT:       8614  MISS:      24392  iACCESS:          0  iHIT:          0  iMISS:          0  dACCESS:          0  dHIT:          0  dMISS:          0  itACCESS:       8964  itHIT:       3080  itMISS:       5884  dtACCESS:      24042  dtHIT:       5534  dtMISS:      18508
LLC PREFETCH  REQUESTED:          0  ISSUED:          0  CROSSED:          0  USEFUL:          0  USELESS:          0
LLC AVERAGE iMISS LATENCY: 46.0567 cycles
LLC AVERAGE dMISS LATENCY: 108.566 cycles
LLC AVERAGE itMISS LATENCY: 1.22313 cycles
LLC AVERAGE dtMISS LATENCY: 3.97091 cycles
LLC PAGE CROSSINGS (TLB HIT):         0 
LLC PAGE CROSSINGS (TLB MISS):         0 
LLC AVERAGE MISS LATENCY: 159.816 cycles

PageTableWalker TOTAL       ACCESS:      82316  
PageTableWalker AVERAGE LATENCY: 4.0187 cycles
PageTableWalker TOTAL LATENCY: 330803 cycles

DRAM Statistics
Channel 0
 RQ ROW_BUFFER_HIT:     224420
  ROW_BUFFER_MISS:     609154
 AVG DBUS CONGESTED CYCLE:    3.62977
 WQ ROW_BUFFER_HIT:      20781
  ROW_BUFFER_MISS:      27998  FULL:          0

