last_page:0x200000000000000
VMEM_RES_CAP:0x100000
PAGE_SIZE:4096
LOG2_PAGE_SIZE:12
LOG2_PAGE_TABLE_SIZE:9
page_table_levels:5
WARNING: physical memory size is smaller than virtual memory size
FDiP enabled with aggresivity 16

*** ChampSim Multicore Out-of-Order Simulator ***

Warmup Instructions: 50000000
Simulation Instructions: 100000000
Number of CPUs: 1
Small page size: 4096
Large page size: 2097152

CPU 0 Bimodal branch predictor
Basic BTB sets: 1024 ways: 8 indirect buffer size: 4096 RAS size: 64
Instruction page size distrubution: 0
Loading instruction page size distribution from /home/bsc/bsc018186/scratch/itp_asplos25_AE/dump/srv44_ap.pdst
Data page size distrubution: 0
Loading data page size distribution from /home/bsc/bsc018186/scratch/itp_asplos25_AE/dump/srv44_ap.pdst
cpu0_L2C IP-based stride prefetcher
cpu0_L2C is using xPTP/LRU
	TLB_LOWER_STRESS_THRESHOLD:1
	TLB_UPPER_STRESS_THRESHOLD:9
	MIN_EVICTION_POSITION:4
cpu0_L1D next line prefetcher
cpu0_STLB using iTP with max lru@8
cpu0_STLB using iTP with instr@0 and data@2
Init sat counter with 3 bits (max:50).
cpu0_L1I next line prefetcher
Off-chip DRAM Size: 4 GiB Channels: 1 Width: 64-bit Data Rate: 3200 MT/s
Heartbeat CPU 0 instructions: 10000000 cycles: 2500209 heartbeat IPC: 3.99967 cumulative IPC: 3.99967 (Simulation time: 0 hr 0 min 42 sec) 
Heartbeat CPU 0 instructions: 20000003 cycles: 5000277 heartbeat IPC: 3.9999 cumulative IPC: 3.99978 (Simulation time: 0 hr 1 min 22 sec) 
Heartbeat CPU 0 instructions: 30000003 cycles: 7500294 heartbeat IPC: 3.99998 cumulative IPC: 3.99985 (Simulation time: 0 hr 2 min 5 sec) 
Heartbeat CPU 0 instructions: 40000000 cycles: 10000326 heartbeat IPC: 3.99995 cumulative IPC: 3.99987 (Simulation time: 0 hr 2 min 50 sec) 
Heartbeat CPU 0 instructions: 50000003 cycles: 12500366 heartbeat IPC: 3.99994 cumulative IPC: 3.99989 (Simulation time: 0 hr 3 min 34 sec) 
Warmup finished CPU 0 instructions: 50000003 cycles: 12500367 cumulative IPC: 3.99989 (Simulation time: 0 hr 3 min 34 sec) 

Warmup complete CPU 0 instructions: 50000003 cycles: 12500367 (Simulation time: 0 hr 3 min 34 sec) 

Heartbeat CPU 0 instructions: 60000003 cycles: 26302841 heartbeat IPC: 0.724508 cumulative IPC: 0.724508 (Simulation time: 0 hr 4 min 43 sec) 
Heartbeat CPU 0 instructions: 70000000 cycles: 39433555 heartbeat IPC: 0.761573 cumulative IPC: 0.742579 (Simulation time: 0 hr 5 min 47 sec) 
Heartbeat CPU 0 instructions: 80000000 cycles: 52477636 heartbeat IPC: 0.766632 cumulative IPC: 0.750427 (Simulation time: 0 hr 6 min 55 sec) 
Heartbeat CPU 0 instructions: 90000002 cycles: 65006200 heartbeat IPC: 0.798177 cumulative IPC: 0.761821 (Simulation time: 0 hr 8 min 2 sec) 
Heartbeat CPU 0 instructions: 100000003 cycles: 77953285 heartbeat IPC: 0.772375 cumulative IPC: 0.763908 (Simulation time: 0 hr 9 min 9 sec) 
*** Reached end of trace: /gpfs/projects/bsc18/MN4/bsc18/romol/ChampSim/traces/qualcomm_srv/srv44_ap.champsimtrace.xz
Heartbeat CPU 0 instructions: 110000002 cycles: 91149155 heartbeat IPC: 0.757813 cumulative IPC: 0.762886 (Simulation time: 0 hr 10 min 13 sec) 
Heartbeat CPU 0 instructions: 120000000 cycles: 104792749 heartbeat IPC: 0.732945 cumulative IPC: 0.75846 (Simulation time: 0 hr 11 min 22 sec) 
Heartbeat CPU 0 instructions: 130000000 cycles: 117393240 heartbeat IPC: 0.79362 cumulative IPC: 0.762683 (Simulation time: 0 hr 12 min 29 sec) 
Heartbeat CPU 0 instructions: 140000001 cycles: 129689149 heartbeat IPC: 0.813279 cumulative IPC: 0.767992 (Simulation time: 0 hr 13 min 36 sec) 
Heartbeat CPU 0 instructions: 150000000 cycles: 142593693 heartbeat IPC: 0.774921 cumulative IPC: 0.768679 (Simulation time: 0 hr 14 min 39 sec) 
Simulation finished CPU 0 instructions: 100000000 cycles: 130093328 cumulative IPC: 0.768679 (Simulation time: 0 hr 14 min 39 sec) 

Simulation complete CPU 0 instructions: 100000000 cycles: 130093328 (Simulation time: 0 hr 14 min 39 sec) 


ChampSim completed all CPUs

Saving instructions large page distribution to /home/bsc/bsc018186/scratch/itp_asplos25_AE/dump/srv44_ap.pdst...
Saving data large page distribution to /home/bsc/bsc018186/scratch/itp_asplos25_AE/dump/srv44_ap.pdst...
=== Simulation ===
CPU 0 runs /gpfs/projects/bsc18/MN4/bsc18/romol/ChampSim/traces/qualcomm_srv/srv44_ap.champsimtrace.xz

Region of Interest Statistics

CPU 0 cumulative IPC: 0.768679 instructions: 100000000 cycles: 130093328
CPU 0 Branch Prediction Accuracy: 82.6949% MPKI: 31.0017 Average ROB Occupancy at Mispredict: 12.7916
Branch type MPKI
BRANCH_DIRECT_JUMP: 1.04266
BRANCH_INDIRECT: 15.9928
BRANCH_CONDITIONAL: 10.2125
BRANCH_DIRECT_CALL: 1.88785
BRANCH_INDIRECT_CALL: 0.515821
BRANCH_RETURN: 1.35008

Instructions large pages: 0
Instructions small pages: 962
Large page distribution for instructions: 0%

Data large pages: 0
Data small pages: 9382
Large page distribution for data: 0%

cpu0_L1I TOTAL       ACCESS:   35390399  HIT:   27327496  MISS:    8062903  iACCESS:   35390399  iHIT:   27327496  iMISS:    8062903  dACCESS:          0  dHIT:          0  dMISS:          0  itACCESS:          0  itHIT:          0  itMISS:          0  dtACCESS:          0  dtHIT:          0  dtMISS:          0
cpu0_L1I LOAD         ACCESS:   10383926  HIT:    8123319  MISS:    2260607  iACCESS:   10383926  iHIT:    8123319  iMISS:    2260607  dACCESS:          0  dHIT:          0  dMISS:          0  itACCESS:          0  itHIT:          0  itMISS:          0  dtACCESS:          0  dtHIT:          0  dtMISS:          0
cpu0_L1I RFO          ACCESS:          0  HIT:          0  MISS:          0  iACCESS:          0  iHIT:          0  iMISS:          0  dACCESS:          0  dHIT:          0  dMISS:          0  itACCESS:          0  itHIT:          0  itMISS:          0  dtACCESS:          0  dtHIT:          0  dtMISS:          0
cpu0_L1I PREFETCH     ACCESS:   25006473  HIT:   19204177  MISS:    5802296  iACCESS:   25006473  iHIT:   19204177  iMISS:    5802296  dACCESS:          0  dHIT:          0  dMISS:          0  itACCESS:          0  itHIT:          0  itMISS:          0  dtACCESS:          0  dtHIT:          0  dtMISS:          0
cpu0_L1I WRITE        ACCESS:          0  HIT:          0  MISS:          0  iACCESS:          0  iHIT:          0  iMISS:          0  dACCESS:          0  dHIT:          0  dMISS:          0  itACCESS:          0  itHIT:          0  itMISS:          0  dtACCESS:          0  dtHIT:          0  dtMISS:          0
cpu0_L1I TRANSLATION  ACCESS:          0  HIT:          0  MISS:          0  iACCESS:          0  iHIT:          0  iMISS:          0  dACCESS:          0  dHIT:          0  dMISS:          0  itACCESS:          0  itHIT:          0  itMISS:          0  dtACCESS:          0  dtHIT:          0  dtMISS:          0
cpu0_L1I PREFETCH  REQUESTED:   27453960  ISSUED:   27453609  CROSSED:          0  USEFUL:    1944182  USELESS:     627961
cpu0_L1I AVERAGE iMISS LATENCY: 10.8289 cycles
cpu0_L1I AVERAGE dMISS LATENCY: 0 cycles
cpu0_L1I AVERAGE itMISS LATENCY: 0 cycles
cpu0_L1I AVERAGE dtMISS LATENCY: 0 cycles
cpu0_L1I PAGE CROSSINGS (TLB HIT):         0 
cpu0_L1I PAGE CROSSINGS (TLB MISS):         0 
cpu0_L1I AVERAGE MISS LATENCY: 10.8289 cycles
cpu0_ITLB TOTAL       ACCESS:   29444897  HIT:   27518768  MISS:    1926129  iACCESS:   29444897  iHIT:   27518768  iMISS:    1926129  dACCESS:          0  dHIT:          0  dMISS:          0  itACCESS:          0  itHIT:          0  itMISS:          0  dtACCESS:          0  dtHIT:          0  dtMISS:          0
cpu0_ITLB LOAD         ACCESS:   29444897  HIT:   27518768  MISS:    1926129  iACCESS:   29444897  iHIT:   27518768  iMISS:    1926129  dACCESS:          0  dHIT:          0  dMISS:          0  itACCESS:          0  itHIT:          0  itMISS:          0  dtACCESS:          0  dtHIT:          0  dtMISS:          0
cpu0_ITLB RFO          ACCESS:          0  HIT:          0  MISS:          0  iACCESS:          0  iHIT:          0  iMISS:          0  dACCESS:          0  dHIT:          0  dMISS:          0  itACCESS:          0  itHIT:          0  itMISS:          0  dtACCESS:          0  dtHIT:          0  dtMISS:          0
cpu0_ITLB PREFETCH     ACCESS:          0  HIT:          0  MISS:          0  iACCESS:          0  iHIT:          0  iMISS:          0  dACCESS:          0  dHIT:          0  dMISS:          0  itACCESS:          0  itHIT:          0  itMISS:          0  dtACCESS:          0  dtHIT:          0  dtMISS:          0
cpu0_ITLB WRITE        ACCESS:          0  HIT:          0  MISS:          0  iACCESS:          0  iHIT:          0  iMISS:          0  dACCESS:          0  dHIT:          0  dMISS:          0  itACCESS:          0  itHIT:          0  itMISS:          0  dtACCESS:          0  dtHIT:          0  dtMISS:          0
cpu0_ITLB TRANSLATION  ACCESS:          0  HIT:          0  MISS:          0  iACCESS:          0  iHIT:          0  iMISS:          0  dACCESS:          0  dHIT:          0  dMISS:          0  itACCESS:          0  itHIT:          0  itMISS:          0  dtACCESS:          0  dtHIT:          0  dtMISS:          0
cpu0_ITLB PREFETCH  REQUESTED:          0  ISSUED:          0  CROSSED:          0  USEFUL:     316981  USELESS:      63990
cpu0_ITLB AVERAGE iMISS LATENCY: 2.00556 cycles
cpu0_ITLB AVERAGE dMISS LATENCY: 0 cycles
cpu0_ITLB AVERAGE itMISS LATENCY: 0 cycles
cpu0_ITLB AVERAGE dtMISS LATENCY: 0 cycles
cpu0_ITLB PAGE CROSSINGS (TLB HIT):         0 
cpu0_ITLB PAGE CROSSINGS (TLB MISS):         0 
cpu0_ITLB AVERAGE MISS LATENCY: 2.00556 cycles
cpu0_DTLB TOTAL       ACCESS:   27857741  HIT:   26071069  MISS:    1786672  iACCESS:          0  iHIT:          0  iMISS:          0  dACCESS:   27857741  dHIT:   26071069  dMISS:    1786672  itACCESS:          0  itHIT:          0  itMISS:          0  dtACCESS:          0  dtHIT:          0  dtMISS:          0
cpu0_DTLB LOAD         ACCESS:   27857741  HIT:   26071069  MISS:    1786672  iACCESS:          0  iHIT:          0  iMISS:          0  dACCESS:   27857741  dHIT:   26071069  dMISS:    1786672  itACCESS:          0  itHIT:          0  itMISS:          0  dtACCESS:          0  dtHIT:          0  dtMISS:          0
cpu0_DTLB RFO          ACCESS:          0  HIT:          0  MISS:          0  iACCESS:          0  iHIT:          0  iMISS:          0  dACCESS:          0  dHIT:          0  dMISS:          0  itACCESS:          0  itHIT:          0  itMISS:          0  dtACCESS:          0  dtHIT:          0  dtMISS:          0
cpu0_DTLB PREFETCH     ACCESS:          0  HIT:          0  MISS:          0  iACCESS:          0  iHIT:          0  iMISS:          0  dACCESS:          0  dHIT:          0  dMISS:          0  itACCESS:          0  itHIT:          0  itMISS:          0  dtACCESS:          0  dtHIT:          0  dtMISS:          0
cpu0_DTLB WRITE        ACCESS:          0  HIT:          0  MISS:          0  iACCESS:          0  iHIT:          0  iMISS:          0  dACCESS:          0  dHIT:          0  dMISS:          0  itACCESS:          0  itHIT:          0  itMISS:          0  dtACCESS:          0  dtHIT:          0  dtMISS:          0
cpu0_DTLB TRANSLATION  ACCESS:          0  HIT:          0  MISS:          0  iACCESS:          0  iHIT:          0  iMISS:          0  dACCESS:          0  dHIT:          0  dMISS:          0  itACCESS:          0  itHIT:          0  itMISS:          0  dtACCESS:          0  dtHIT:          0  dtMISS:          0
cpu0_DTLB PREFETCH  REQUESTED:          0  ISSUED:          0  CROSSED:          0  USEFUL:          0  USELESS:          0
cpu0_DTLB AVERAGE iMISS LATENCY: 0 cycles
cpu0_DTLB AVERAGE dMISS LATENCY: 11.483 cycles
cpu0_DTLB AVERAGE itMISS LATENCY: 0 cycles
cpu0_DTLB AVERAGE dtMISS LATENCY: 0 cycles
cpu0_DTLB PAGE CROSSINGS (TLB HIT):         0 
cpu0_DTLB PAGE CROSSINGS (TLB MISS):         0 
cpu0_DTLB AVERAGE MISS LATENCY: 11.483 cycles
cpu0_STLB TOTAL       ACCESS:    1465253  HIT:    1319383  MISS:     145870  iACCESS:     380976  iHIT:     372269  iMISS:       8707  dACCESS:    1084277  dHIT:     947114  dMISS:     137163  itACCESS:          0  itHIT:          0  itMISS:          0  dtACCESS:          0  dtHIT:          0  dtMISS:          0
cpu0_STLB LOAD         ACCESS:    1465253  HIT:    1319383  MISS:     145870  iACCESS:     380976  iHIT:     372269  iMISS:       8707  dACCESS:    1084277  dHIT:     947114  dMISS:     137163  itACCESS:          0  itHIT:          0  itMISS:          0  dtACCESS:          0  dtHIT:          0  dtMISS:          0
cpu0_STLB RFO          ACCESS:          0  HIT:          0  MISS:          0  iACCESS:          0  iHIT:          0  iMISS:          0  dACCESS:          0  dHIT:          0  dMISS:          0  itACCESS:          0  itHIT:          0  itMISS:          0  dtACCESS:          0  dtHIT:          0  dtMISS:          0
cpu0_STLB PREFETCH     ACCESS:          0  HIT:          0  MISS:          0  iACCESS:          0  iHIT:          0  iMISS:          0  dACCESS:          0  dHIT:          0  dMISS:          0  itACCESS:          0  itHIT:          0  itMISS:          0  dtACCESS:          0  dtHIT:          0  dtMISS:          0
cpu0_STLB WRITE        ACCESS:          0  HIT:          0  MISS:          0  iACCESS:          0  iHIT:          0  iMISS:          0  dACCESS:          0  dHIT:          0  dMISS:          0  itACCESS:          0  itHIT:          0  itMISS:          0  dtACCESS:          0  dtHIT:          0  dtMISS:          0
cpu0_STLB TRANSLATION  ACCESS:          0  HIT:          0  MISS:          0  iACCESS:          0  iHIT:          0  iMISS:          0  dACCESS:          0  dHIT:          0  dMISS:          0  itACCESS:          0  itHIT:          0  itMISS:          0  dtACCESS:          0  dtHIT:          0  dtMISS:          0
cpu0_STLB PREFETCH  REQUESTED:          0  ISSUED:          0  CROSSED:          0  USEFUL:          0  USELESS:          0
cpu0_STLB AVERAGE iMISS LATENCY: 6.23735 cycles
cpu0_STLB AVERAGE dMISS LATENCY: 81.2081 cycles
cpu0_STLB AVERAGE itMISS LATENCY: 0 cycles
cpu0_STLB AVERAGE dtMISS LATENCY: 0 cycles
cpu0_STLB PAGE CROSSINGS (TLB HIT):         0 
cpu0_STLB PAGE CROSSINGS (TLB MISS):         0 
cpu0_STLB AVERAGE MISS LATENCY: 87.4455 cycles
cpu0_L1D TOTAL       ACCESS:   41577168  HIT:   38133531  MISS:    3443637  iACCESS:          0  iHIT:          0  iMISS:          0  dACCESS:   41364148  dHIT:   38120528  dMISS:    3243620  itACCESS:      10233  itHIT:       1034  itMISS:       9199  dtACCESS:     202787  dtHIT:      11969  dtMISS:     190818
cpu0_L1D LOAD         ACCESS:   19059268  HIT:   17584795  MISS:    1474473  iACCESS:          0  iHIT:          0  iMISS:          0  dACCESS:   19059268  dHIT:   17584795  dMISS:    1474473  itACCESS:          0  itHIT:          0  itMISS:          0  dtACCESS:          0  dtHIT:          0  dtMISS:          0
cpu0_L1D RFO          ACCESS:          0  HIT:          0  MISS:          0  iACCESS:          0  iHIT:          0  iMISS:          0  dACCESS:          0  dHIT:          0  dMISS:          0  itACCESS:          0  itHIT:          0  itMISS:          0  dtACCESS:          0  dtHIT:          0  dtMISS:          0
cpu0_L1D PREFETCH     ACCESS:   12116581  HIT:   10778807  MISS:    1337774  iACCESS:          0  iHIT:          0  iMISS:          0  dACCESS:   12116581  dHIT:   10778807  dMISS:    1337774  itACCESS:          0  itHIT:          0  itMISS:          0  dtACCESS:          0  dtHIT:          0  dtMISS:          0
cpu0_L1D WRITE        ACCESS:   10188299  HIT:    9756926  MISS:     431373  iACCESS:          0  iHIT:          0  iMISS:          0  dACCESS:   10188299  dHIT:    9756926  dMISS:     431373  itACCESS:          0  itHIT:          0  itMISS:          0  dtACCESS:          0  dtHIT:          0  dtMISS:          0
cpu0_L1D TRANSLATION  ACCESS:     213020  HIT:      13003  MISS:     200017  iACCESS:          0  iHIT:          0  iMISS:          0  dACCESS:          0  dHIT:          0  dMISS:          0  itACCESS:      10233  itHIT:       1034  itMISS:       9199  dtACCESS:     202787  dtHIT:      11969  dtMISS:     190818
cpu0_L1D PREFETCH  REQUESTED:   19059268  ISSUED:   16909086  CROSSED:          0  USEFUL:     308618  USELESS:     698909
cpu0_L1D AVERAGE iMISS LATENCY: 0 cycles
cpu0_L1D AVERAGE dMISS LATENCY: 29.2568 cycles
cpu0_L1D AVERAGE itMISS LATENCY: 0.238854 cycles
cpu0_L1D AVERAGE dtMISS LATENCY: 2.69532 cycles
cpu0_L1D PAGE CROSSINGS (TLB HIT):         0 
cpu0_L1D PAGE CROSSINGS (TLB MISS):         0 
cpu0_L1D AVERAGE MISS LATENCY: 32.191 cycles
cpu0_L2C TOTAL       ACCESS:    7003958  HIT:    2662847  MISS:    4341111  iACCESS:    3310725  iHIT:    1489548  iMISS:    1821177  dACCESS:    3501641  dHIT:    1037553  dMISS:    2464088  itACCESS:       9199  itHIT:       3632  itMISS:       5567  dtACCESS:     182393  dtHIT:     132114  dtMISS:      50279
cpu0_L2C LOAD         ACCESS:    1702274  HIT:     567874  MISS:    1134400  iACCESS:     777711  iHIT:     315600  iMISS:     462111  dACCESS:     924563  dHIT:     252274  dMISS:     672289  itACCESS:          0  itHIT:          0  itMISS:          0  dtACCESS:          0  dtHIT:          0  dtMISS:          0
cpu0_L2C RFO          ACCESS:     158676  HIT:      34458  MISS:     124218  iACCESS:          0  iHIT:          0  iMISS:          0  dACCESS:     158676  dHIT:      34458  dMISS:     124218  itACCESS:          0  itHIT:          0  itMISS:          0  dtACCESS:          0  dtHIT:          0  dtMISS:          0
cpu0_L2C PREFETCH     ACCESS:    4670811  HIT:    1799892  MISS:    2870919  iACCESS:    2533014  iHIT:    1173948  iMISS:    1359066  dACCESS:    2137797  dHIT:     625944  dMISS:    1511853  itACCESS:          0  itHIT:          0  itMISS:          0  dtACCESS:          0  dtHIT:          0  dtMISS:          0
cpu0_L2C WRITE        ACCESS:     280605  HIT:     124877  MISS:     155728  iACCESS:          0  iHIT:          0  iMISS:          0  dACCESS:     280605  dHIT:     124877  dMISS:     155728  itACCESS:          0  itHIT:          0  itMISS:          0  dtACCESS:          0  dtHIT:          0  dtMISS:          0
cpu0_L2C TRANSLATION  ACCESS:     191592  HIT:     135746  MISS:      55846  iACCESS:          0  iHIT:          0  iMISS:          0  dACCESS:          0  dHIT:          0  dMISS:          0  itACCESS:       9199  itHIT:       3632  itMISS:       5567  dtACCESS:     182393  dtHIT:     132114  dtMISS:      50279
cpu0_L2C PREFETCH  REQUESTED:    1395072  ISSUED:    1395072  CROSSED:          0  USEFUL:     369437  USELESS:     326283
cpu0_L2C AVERAGE iMISS LATENCY: 13.0826 cycles
cpu0_L2C AVERAGE dMISS LATENCY: 25.5261 cycles
cpu0_L2C AVERAGE itMISS LATENCY: 0.169054 cycles
cpu0_L2C AVERAGE dtMISS LATENCY: 1.74617 cycles
cpu0_L2C PAGE CROSSINGS (TLB HIT):         0 
cpu0_L2C PAGE CROSSINGS (TLB MISS):         0 
cpu0_L2C AVERAGE MISS LATENCY: 40.5238 cycles
LLC TOTAL       ACCESS:    4296711  HIT:    3693956  MISS:     602755  iACCESS:    1777457  iHIT:    1626797  iMISS:     150660  dACCESS:    2463408  dHIT:    2052780  dMISS:     410628  itACCESS:       5567  itHIT:       1995  itMISS:       3572  dtACCESS:      50279  dtHIT:      12384  dtMISS:      37895
LLC LOAD         ACCESS:    1132704  HIT:     996377  MISS:     136327  iACCESS:     460787  iHIT:     427879  iMISS:      32908  dACCESS:     671917  dHIT:     568498  dMISS:     103419  itACCESS:          0  itHIT:          0  itMISS:          0  dtACCESS:          0  dtHIT:          0  dtMISS:          0
LLC RFO          ACCESS:     124214  HIT:      92392  MISS:      31822  iACCESS:          0  iHIT:          0  iMISS:          0  dACCESS:     124214  dHIT:      92392  dMISS:      31822  itACCESS:          0  itHIT:          0  itMISS:          0  dtACCESS:          0  dtHIT:          0  dtMISS:          0
LLC PREFETCH     ACCESS:    2787668  HIT:    2396580  MISS:     391088  iACCESS:    1316670  iHIT:    1198918  iMISS:     117752  dACCESS:    1470998  dHIT:    1197662  dMISS:     273336  itACCESS:          0  itHIT:          0  itMISS:          0  dtACCESS:          0  dtHIT:          0  dtMISS:          0
LLC WRITE        ACCESS:     196279  HIT:     194228  MISS:       2051  iACCESS:          0  iHIT:          0  iMISS:          0  dACCESS:     196279  dHIT:     194228  dMISS:       2051  itACCESS:          0  itHIT:          0  itMISS:          0  dtACCESS:          0  dtHIT:          0  dtMISS:          0
LLC TRANSLATION  ACCESS:      55846  HIT:      14379  MISS:      41467  iACCESS:          0  iHIT:          0  iMISS:          0  dACCESS:          0  dHIT:          0  dMISS:          0  itACCESS:       5567  itHIT:       1995  itMISS:       3572  dtACCESS:      50279  dtHIT:      12384  dtMISS:      37895
LLC PREFETCH  REQUESTED:          0  ISSUED:          0  CROSSED:          0  USEFUL:          0  USELESS:          0
LLC AVERAGE iMISS LATENCY: 37.4123 cycles
LLC AVERAGE dMISS LATENCY: 111.226 cycles
LLC AVERAGE itMISS LATENCY: 1.03661 cycles
LLC AVERAGE dtMISS LATENCY: 10.9328 cycles
LLC PAGE CROSSINGS (TLB HIT):         0 
LLC PAGE CROSSINGS (TLB MISS):         0 
LLC AVERAGE MISS LATENCY: 160.608 cycles

PageTableWalker TOTAL       ACCESS:      71587  
PageTableWalker AVERAGE LATENCY: 4.74412 cycles
PageTableWalker TOTAL LATENCY: 339617 cycles

DRAM Statistics
Channel 0
 RQ ROW_BUFFER_HIT:     151938
  ROW_BUFFER_MISS:     448717
 AVG DBUS CONGESTED CYCLE:    3.64751
 WQ ROW_BUFFER_HIT:      14710
  ROW_BUFFER_MISS:      25817  FULL:          0

