last_page:0x200000000000000
VMEM_RES_CAP:0x100000
PAGE_SIZE:4096
LOG2_PAGE_SIZE:12
LOG2_PAGE_TABLE_SIZE:9
page_table_levels:5
WARNING: physical memory size is smaller than virtual memory size
FDiP enabled with aggresivity 16

*** ChampSim Multicore Out-of-Order Simulator ***

Warmup Instructions: 50000000
Simulation Instructions: 100000000
Number of CPUs: 1
Small page size: 4096
Large page size: 2097152

CPU 0 Bimodal branch predictor
Basic BTB sets: 1024 ways: 8 indirect buffer size: 4096 RAS size: 64
Instruction page size distrubution: 0
Loading instruction page size distribution from /home/bsc/bsc018186/scratch/itp_asplos25_AE/dump/srv483_ap.pdst
Data page size distrubution: 0
Loading data page size distribution from /home/bsc/bsc018186/scratch/itp_asplos25_AE/dump/srv483_ap.pdst
cpu0_L2C IP-based stride prefetcher
cpu0_L1D next line prefetcher
cpu0_STLB using iTP with max lru@8
cpu0_STLB using iTP with instr@0 and data@2
Init sat counter with 3 bits (max:50).
cpu0_L1I next line prefetcher
Off-chip DRAM Size: 4 GiB Channels: 1 Width: 64-bit Data Rate: 3200 MT/s
Heartbeat CPU 0 instructions: 10000003 cycles: 2500067 heartbeat IPC: 3.9999 cumulative IPC: 3.9999 (Simulation time: 0 hr 0 min 36 sec) 
Heartbeat CPU 0 instructions: 20000002 cycles: 5000106 heartbeat IPC: 3.99994 cumulative IPC: 3.99992 (Simulation time: 0 hr 1 min 15 sec) 
Heartbeat CPU 0 instructions: 30000000 cycles: 7500106 heartbeat IPC: 4 cumulative IPC: 3.99995 (Simulation time: 0 hr 1 min 54 sec) 
Heartbeat CPU 0 instructions: 40000001 cycles: 10000175 heartbeat IPC: 3.9999 cumulative IPC: 3.99994 (Simulation time: 0 hr 2 min 34 sec) 
Heartbeat CPU 0 instructions: 50000002 cycles: 12500216 heartbeat IPC: 3.99994 cumulative IPC: 3.99994 (Simulation time: 0 hr 3 min 15 sec) 
Warmup finished CPU 0 instructions: 50000002 cycles: 12500217 cumulative IPC: 3.99994 (Simulation time: 0 hr 3 min 15 sec) 

Warmup complete CPU 0 instructions: 50000002 cycles: 12500217 (Simulation time: 0 hr 3 min 15 sec) 

Heartbeat CPU 0 instructions: 60000003 cycles: 27958134 heartbeat IPC: 0.646918 cumulative IPC: 0.646918 (Simulation time: 0 hr 4 min 19 sec) 
Heartbeat CPU 0 instructions: 70000002 cycles: 42347755 heartbeat IPC: 0.694946 cumulative IPC: 0.670073 (Simulation time: 0 hr 5 min 23 sec) 
Heartbeat CPU 0 instructions: 80000003 cycles: 58400260 heartbeat IPC: 0.622956 cumulative IPC: 0.653595 (Simulation time: 0 hr 6 min 30 sec) 
Heartbeat CPU 0 instructions: 90000002 cycles: 74640045 heartbeat IPC: 0.615772 cumulative IPC: 0.64371 (Simulation time: 0 hr 7 min 37 sec) 
Heartbeat CPU 0 instructions: 100000004 cycles: 90500852 heartbeat IPC: 0.630486 cumulative IPC: 0.641021 (Simulation time: 0 hr 8 min 44 sec) 
*** Reached end of trace: /gpfs/projects/bsc18/MN4/bsc18/romol/ChampSim/traces/qualcomm_srv/srv483_ap.champsimtrace.xz
Heartbeat CPU 0 instructions: 110000000 cycles: 105074814 heartbeat IPC: 0.686155 cumulative IPC: 0.648126 (Simulation time: 0 hr 9 min 49 sec) 
Heartbeat CPU 0 instructions: 120000003 cycles: 120239694 heartbeat IPC: 0.659419 cumulative IPC: 0.649716 (Simulation time: 0 hr 10 min 55 sec) 
Heartbeat CPU 0 instructions: 130000000 cycles: 135596269 heartbeat IPC: 0.651187 cumulative IPC: 0.649899 (Simulation time: 0 hr 12 min 1 sec) 
Heartbeat CPU 0 instructions: 140000001 cycles: 150023937 heartbeat IPC: 0.693113 cumulative IPC: 0.654433 (Simulation time: 0 hr 13 min 5 sec) 
Heartbeat CPU 0 instructions: 150000001 cycles: 164048053 heartbeat IPC: 0.713058 cumulative IPC: 0.659858 (Simulation time: 0 hr 14 min 9 sec) 
Simulation finished CPU 0 instructions: 100000000 cycles: 151547838 cumulative IPC: 0.659858 (Simulation time: 0 hr 14 min 9 sec) 

Simulation complete CPU 0 instructions: 100000000 cycles: 151547838 (Simulation time: 0 hr 14 min 9 sec) 


ChampSim completed all CPUs

Saving instructions large page distribution to /home/bsc/bsc018186/scratch/itp_asplos25_AE/dump/srv483_ap.pdst...
Saving data large page distribution to /home/bsc/bsc018186/scratch/itp_asplos25_AE/dump/srv483_ap.pdst...
=== Simulation ===
CPU 0 runs /gpfs/projects/bsc18/MN4/bsc18/romol/ChampSim/traces/qualcomm_srv/srv483_ap.champsimtrace.xz

Region of Interest Statistics

CPU 0 cumulative IPC: 0.659858 instructions: 100000000 cycles: 151547838
CPU 0 Branch Prediction Accuracy: 82.7754% MPKI: 30.8281 Average ROB Occupancy at Mispredict: 12.5436
Branch type MPKI
BRANCH_DIRECT_JUMP: 1.03753
BRANCH_INDIRECT: 15.8271
BRANCH_CONDITIONAL: 10.2134
BRANCH_DIRECT_CALL: 1.87908
BRANCH_INDIRECT_CALL: 0.525871
BRANCH_RETURN: 1.34522

Instructions large pages: 0
Instructions small pages: 967
Large page distribution for instructions: 0%

Data large pages: 0
Data small pages: 9709
Large page distribution for data: 0%

cpu0_L1I TOTAL       ACCESS:   35277626  HIT:   27302268  MISS:    7975358  iACCESS:   35277626  iHIT:   27302268  iMISS:    7975358  dACCESS:          0  dHIT:          0  dMISS:          0  itACCESS:          0  itHIT:          0  itMISS:          0  dtACCESS:          0  dtHIT:          0  dtMISS:          0
cpu0_L1I LOAD         ACCESS:   10375042  HIT:    8127321  MISS:    2247721  iACCESS:   10375042  iHIT:    8127321  iMISS:    2247721  dACCESS:          0  dHIT:          0  dMISS:          0  itACCESS:          0  itHIT:          0  itMISS:          0  dtACCESS:          0  dtHIT:          0  dtMISS:          0
cpu0_L1I RFO          ACCESS:          0  HIT:          0  MISS:          0  iACCESS:          0  iHIT:          0  iMISS:          0  dACCESS:          0  dHIT:          0  dMISS:          0  itACCESS:          0  itHIT:          0  itMISS:          0  dtACCESS:          0  dtHIT:          0  dtMISS:          0
cpu0_L1I PREFETCH     ACCESS:   24902584  HIT:   19174947  MISS:    5727637  iACCESS:   24902584  iHIT:   19174947  iMISS:    5727637  dACCESS:          0  dHIT:          0  dMISS:          0  itACCESS:          0  itHIT:          0  itMISS:          0  dtACCESS:          0  dtHIT:          0  dtMISS:          0
cpu0_L1I WRITE        ACCESS:          0  HIT:          0  MISS:          0  iACCESS:          0  iHIT:          0  iMISS:          0  dACCESS:          0  dHIT:          0  dMISS:          0  itACCESS:          0  itHIT:          0  itMISS:          0  dtACCESS:          0  dtHIT:          0  dtMISS:          0
cpu0_L1I TRANSLATION  ACCESS:          0  HIT:          0  MISS:          0  iACCESS:          0  iHIT:          0  iMISS:          0  dACCESS:          0  dHIT:          0  dMISS:          0  itACCESS:          0  itHIT:          0  itMISS:          0  dtACCESS:          0  dtHIT:          0  dtMISS:          0
cpu0_L1I PREFETCH  REQUESTED:   27446977  ISSUED:   27446970  CROSSED:          0  USEFUL:    1955993  USELESS:     639783
cpu0_L1I AVERAGE iMISS LATENCY: 12.8463 cycles
cpu0_L1I AVERAGE dMISS LATENCY: 0 cycles
cpu0_L1I AVERAGE itMISS LATENCY: 0 cycles
cpu0_L1I AVERAGE dtMISS LATENCY: 0 cycles
cpu0_L1I PAGE CROSSINGS (TLB HIT):         0 
cpu0_L1I PAGE CROSSINGS (TLB MISS):         0 
cpu0_L1I AVERAGE MISS LATENCY: 12.8463 cycles
cpu0_ITLB TOTAL       ACCESS:   29465857  HIT:   27490054  MISS:    1975803  iACCESS:   29465857  iHIT:   27490054  iMISS:    1975803  dACCESS:          0  dHIT:          0  dMISS:          0  itACCESS:          0  itHIT:          0  itMISS:          0  dtACCESS:          0  dtHIT:          0  dtMISS:          0
cpu0_ITLB LOAD         ACCESS:   29465857  HIT:   27490054  MISS:    1975803  iACCESS:   29465857  iHIT:   27490054  iMISS:    1975803  dACCESS:          0  dHIT:          0  dMISS:          0  itACCESS:          0  itHIT:          0  itMISS:          0  dtACCESS:          0  dtHIT:          0  dtMISS:          0
cpu0_ITLB RFO          ACCESS:          0  HIT:          0  MISS:          0  iACCESS:          0  iHIT:          0  iMISS:          0  dACCESS:          0  dHIT:          0  dMISS:          0  itACCESS:          0  itHIT:          0  itMISS:          0  dtACCESS:          0  dtHIT:          0  dtMISS:          0
cpu0_ITLB PREFETCH     ACCESS:          0  HIT:          0  MISS:          0  iACCESS:          0  iHIT:          0  iMISS:          0  dACCESS:          0  dHIT:          0  dMISS:          0  itACCESS:          0  itHIT:          0  itMISS:          0  dtACCESS:          0  dtHIT:          0  dtMISS:          0
cpu0_ITLB WRITE        ACCESS:          0  HIT:          0  MISS:          0  iACCESS:          0  iHIT:          0  iMISS:          0  dACCESS:          0  dHIT:          0  dMISS:          0  itACCESS:          0  itHIT:          0  itMISS:          0  dtACCESS:          0  dtHIT:          0  dtMISS:          0
cpu0_ITLB TRANSLATION  ACCESS:          0  HIT:          0  MISS:          0  iACCESS:          0  iHIT:          0  iMISS:          0  dACCESS:          0  dHIT:          0  dMISS:          0  itACCESS:          0  itHIT:          0  itMISS:          0  dtACCESS:          0  dtHIT:          0  dtMISS:          0
cpu0_ITLB PREFETCH  REQUESTED:          0  ISSUED:          0  CROSSED:          0  USEFUL:     319988  USELESS:      65258
cpu0_ITLB AVERAGE iMISS LATENCY: 2.25237 cycles
cpu0_ITLB AVERAGE dMISS LATENCY: 0 cycles
cpu0_ITLB AVERAGE itMISS LATENCY: 0 cycles
cpu0_ITLB AVERAGE dtMISS LATENCY: 0 cycles
cpu0_ITLB PAGE CROSSINGS (TLB HIT):         0 
cpu0_ITLB PAGE CROSSINGS (TLB MISS):         0 
cpu0_ITLB AVERAGE MISS LATENCY: 2.25237 cycles
cpu0_DTLB TOTAL       ACCESS:   27725499  HIT:   25856115  MISS:    1869384  iACCESS:          0  iHIT:          0  iMISS:          0  dACCESS:   27725499  dHIT:   25856115  dMISS:    1869384  itACCESS:          0  itHIT:          0  itMISS:          0  dtACCESS:          0  dtHIT:          0  dtMISS:          0
cpu0_DTLB LOAD         ACCESS:   27725499  HIT:   25856115  MISS:    1869384  iACCESS:          0  iHIT:          0  iMISS:          0  dACCESS:   27725499  dHIT:   25856115  dMISS:    1869384  itACCESS:          0  itHIT:          0  itMISS:          0  dtACCESS:          0  dtHIT:          0  dtMISS:          0
cpu0_DTLB RFO          ACCESS:          0  HIT:          0  MISS:          0  iACCESS:          0  iHIT:          0  iMISS:          0  dACCESS:          0  dHIT:          0  dMISS:          0  itACCESS:          0  itHIT:          0  itMISS:          0  dtACCESS:          0  dtHIT:          0  dtMISS:          0
cpu0_DTLB PREFETCH     ACCESS:          0  HIT:          0  MISS:          0  iACCESS:          0  iHIT:          0  iMISS:          0  dACCESS:          0  dHIT:          0  dMISS:          0  itACCESS:          0  itHIT:          0  itMISS:          0  dtACCESS:          0  dtHIT:          0  dtMISS:          0
cpu0_DTLB WRITE        ACCESS:          0  HIT:          0  MISS:          0  iACCESS:          0  iHIT:          0  iMISS:          0  dACCESS:          0  dHIT:          0  dMISS:          0  itACCESS:          0  itHIT:          0  itMISS:          0  dtACCESS:          0  dtHIT:          0  dtMISS:          0
cpu0_DTLB TRANSLATION  ACCESS:          0  HIT:          0  MISS:          0  iACCESS:          0  iHIT:          0  iMISS:          0  dACCESS:          0  dHIT:          0  dMISS:          0  itACCESS:          0  itHIT:          0  itMISS:          0  dtACCESS:          0  dtHIT:          0  dtMISS:          0
cpu0_DTLB PREFETCH  REQUESTED:          0  ISSUED:          0  CROSSED:          0  USEFUL:          0  USELESS:          0
cpu0_DTLB AVERAGE iMISS LATENCY: 0 cycles
cpu0_DTLB AVERAGE dMISS LATENCY: 17.5215 cycles
cpu0_DTLB AVERAGE itMISS LATENCY: 0 cycles
cpu0_DTLB AVERAGE dtMISS LATENCY: 0 cycles
cpu0_DTLB PAGE CROSSINGS (TLB HIT):         0 
cpu0_DTLB PAGE CROSSINGS (TLB MISS):         0 
cpu0_DTLB AVERAGE MISS LATENCY: 17.5215 cycles
cpu0_STLB TOTAL       ACCESS:    1525653  HIT:    1381691  MISS:     143962  iACCESS:     385259  iHIT:     375247  iMISS:      10012  dACCESS:    1140394  dHIT:    1006444  dMISS:     133950  itACCESS:          0  itHIT:          0  itMISS:          0  dtACCESS:          0  dtHIT:          0  dtMISS:          0
cpu0_STLB LOAD         ACCESS:    1525653  HIT:    1381691  MISS:     143962  iACCESS:     385259  iHIT:     375247  iMISS:      10012  dACCESS:    1140394  dHIT:    1006444  dMISS:     133950  itACCESS:          0  itHIT:          0  itMISS:          0  dtACCESS:          0  dtHIT:          0  dtMISS:          0
cpu0_STLB RFO          ACCESS:          0  HIT:          0  MISS:          0  iACCESS:          0  iHIT:          0  iMISS:          0  dACCESS:          0  dHIT:          0  dMISS:          0  itACCESS:          0  itHIT:          0  itMISS:          0  dtACCESS:          0  dtHIT:          0  dtMISS:          0
cpu0_STLB PREFETCH     ACCESS:          0  HIT:          0  MISS:          0  iACCESS:          0  iHIT:          0  iMISS:          0  dACCESS:          0  dHIT:          0  dMISS:          0  itACCESS:          0  itHIT:          0  itMISS:          0  dtACCESS:          0  dtHIT:          0  dtMISS:          0
cpu0_STLB WRITE        ACCESS:          0  HIT:          0  MISS:          0  iACCESS:          0  iHIT:          0  iMISS:          0  dACCESS:          0  dHIT:          0  dMISS:          0  itACCESS:          0  itHIT:          0  itMISS:          0  dtACCESS:          0  dtHIT:          0  dtMISS:          0
cpu0_STLB TRANSLATION  ACCESS:          0  HIT:          0  MISS:          0  iACCESS:          0  iHIT:          0  iMISS:          0  dACCESS:          0  dHIT:          0  dMISS:          0  itACCESS:          0  itHIT:          0  itMISS:          0  dtACCESS:          0  dtHIT:          0  dtMISS:          0
cpu0_STLB PREFETCH  REQUESTED:          0  ISSUED:          0  CROSSED:          0  USEFUL:          0  USELESS:          0
cpu0_STLB AVERAGE iMISS LATENCY: 10.1396 cycles
cpu0_STLB AVERAGE dMISS LATENCY: 164.128 cycles
cpu0_STLB AVERAGE itMISS LATENCY: 0 cycles
cpu0_STLB AVERAGE dtMISS LATENCY: 0 cycles
cpu0_STLB PAGE CROSSINGS (TLB HIT):         0 
cpu0_STLB PAGE CROSSINGS (TLB MISS):         0 
cpu0_STLB AVERAGE MISS LATENCY: 174.267 cycles
cpu0_L1D TOTAL       ACCESS:   41498964  HIT:   38039553  MISS:    3459411  iACCESS:          0  iHIT:          0  iMISS:          0  dACCESS:   41288899  dHIT:   38026119  dMISS:    3262780  itACCESS:      11589  itHIT:       1203  itMISS:      10386  dtACCESS:     198476  dtHIT:      12231  dtMISS:     186245
cpu0_L1D LOAD         ACCESS:   18966063  HIT:   17471443  MISS:    1494620  iACCESS:          0  iHIT:          0  iMISS:          0  dACCESS:   18966063  dHIT:   17471443  dMISS:    1494620  itACCESS:          0  itHIT:          0  itMISS:          0  dtACCESS:          0  dtHIT:          0  dtMISS:          0
cpu0_L1D RFO          ACCESS:          0  HIT:          0  MISS:          0  iACCESS:          0  iHIT:          0  iMISS:          0  dACCESS:          0  dHIT:          0  dMISS:          0  itACCESS:          0  itHIT:          0  itMISS:          0  dtACCESS:          0  dtHIT:          0  dtMISS:          0
cpu0_L1D PREFETCH     ACCESS:   12135099  HIT:   10799827  MISS:    1335272  iACCESS:          0  iHIT:          0  iMISS:          0  dACCESS:   12135099  dHIT:   10799827  dMISS:    1335272  itACCESS:          0  itHIT:          0  itMISS:          0  dtACCESS:          0  dtHIT:          0  dtMISS:          0
cpu0_L1D WRITE        ACCESS:   10187737  HIT:    9754849  MISS:     432888  iACCESS:          0  iHIT:          0  iMISS:          0  dACCESS:   10187737  dHIT:    9754849  dMISS:     432888  itACCESS:          0  itHIT:          0  itMISS:          0  dtACCESS:          0  dtHIT:          0  dtMISS:          0
cpu0_L1D TRANSLATION  ACCESS:     210065  HIT:      13434  MISS:     196631  iACCESS:          0  iHIT:          0  iMISS:          0  dACCESS:          0  dHIT:          0  dMISS:          0  itACCESS:      11589  itHIT:       1203  itMISS:      10386  dtACCESS:     198476  dtHIT:      12231  dtMISS:     186245
cpu0_L1D PREFETCH  REQUESTED:   18966063  ISSUED:   16939855  CROSSED:          0  USEFUL:     305324  USELESS:     706313
cpu0_L1D AVERAGE iMISS LATENCY: 0 cycles
cpu0_L1D AVERAGE dMISS LATENCY: 32.8634 cycles
cpu0_L1D AVERAGE itMISS LATENCY: 0.39085 cycles
cpu0_L1D AVERAGE dtMISS LATENCY: 6.02057 cycles
cpu0_L1D PAGE CROSSINGS (TLB HIT):         0 
cpu0_L1D PAGE CROSSINGS (TLB MISS):         0 
cpu0_L1D AVERAGE MISS LATENCY: 39.2748 cycles
cpu0_L2C TOTAL       ACCESS:    7064226  HIT:    4175841  MISS:    2888385  iACCESS:    3361281  iHIT:    2296278  iMISS:    1065003  dACCESS:    3514305  dHIT:    1847615  dMISS:    1666690  itACCESS:      10380  itHIT:       1930  itMISS:       8450  dtACCESS:     178260  dtHIT:      30018  dtMISS:     148242
cpu0_L2C LOAD         ACCESS:    1743334  HIT:    1070692  MISS:     672642  iACCESS:     805192  iHIT:     576841  iMISS:     228351  dACCESS:     938142  dHIT:     493851  dMISS:     444291  itACCESS:          0  itHIT:          0  itMISS:          0  dtACCESS:          0  dtHIT:          0  dtMISS:          0
cpu0_L2C RFO          ACCESS:     158664  HIT:      75456  MISS:      83208  iACCESS:          0  iHIT:          0  iMISS:          0  dACCESS:     158664  dHIT:      75456  dMISS:      83208  itACCESS:          0  itHIT:          0  itMISS:          0  dtACCESS:          0  dtHIT:          0  dtMISS:          0
cpu0_L2C PREFETCH     ACCESS:    4687809  HIT:    2713345  MISS:    1974464  iACCESS:    2556089  iHIT:    1719437  iMISS:     836652  dACCESS:    2131720  dHIT:     993908  dMISS:    1137812  itACCESS:          0  itHIT:          0  itMISS:          0  dtACCESS:          0  dtHIT:          0  dtMISS:          0
cpu0_L2C WRITE        ACCESS:     285779  HIT:     284400  MISS:       1379  iACCESS:          0  iHIT:          0  iMISS:          0  dACCESS:     285779  dHIT:     284400  dMISS:       1379  itACCESS:          0  itHIT:          0  itMISS:          0  dtACCESS:          0  dtHIT:          0  dtMISS:          0
cpu0_L2C TRANSLATION  ACCESS:     188640  HIT:      31948  MISS:     156692  iACCESS:          0  iHIT:          0  iMISS:          0  dACCESS:          0  dHIT:          0  dMISS:          0  itACCESS:      10380  itHIT:       1930  itMISS:       8450  dtACCESS:     178260  dtHIT:      30018  dtMISS:     148242
cpu0_L2C PREFETCH  REQUESTED:    1383008  ISSUED:    1383008  CROSSED:          0  USEFUL:     327975  USELESS:     232340
cpu0_L2C AVERAGE iMISS LATENCY: 24.883 cycles
cpu0_L2C AVERAGE dMISS LATENCY: 47.3447 cycles
cpu0_L2C AVERAGE itMISS LATENCY: 0.43274 cycles
cpu0_L2C AVERAGE dtMISS LATENCY: 6.59942 cycles
cpu0_L2C PAGE CROSSINGS (TLB HIT):         0 
cpu0_L2C PAGE CROSSINGS (TLB MISS):         0 
cpu0_L2C AVERAGE MISS LATENCY: 79.2598 cycles
LLC TOTAL       ACCESS:    2904259  HIT:    1783527  MISS:    1120732  iACCESS:    1007743  iHIT:     646258  iMISS:     361485  dACCESS:    1739824  dHIT:    1077576  dMISS:     662248  itACCESS:       8450  itHIT:       2254  itMISS:       6196  dtACCESS:     148242  dtHIT:      57439  dtMISS:      90803
LLC LOAD         ACCESS:     670744  HIT:     432122  MISS:     238622  iACCESS:     226911  iHIT:     149638  iMISS:      77273  dACCESS:     443833  dHIT:     282484  dMISS:     161349  itACCESS:          0  itHIT:          0  itMISS:          0  dtACCESS:          0  dtHIT:          0  dtMISS:          0
LLC RFO          ACCESS:      83207  HIT:      45116  MISS:      38091  iACCESS:          0  iHIT:          0  iMISS:          0  dACCESS:      83207  dHIT:      45116  dMISS:      38091  itACCESS:          0  itHIT:          0  itMISS:          0  dtACCESS:          0  dtHIT:          0  dtMISS:          0
LLC PREFETCH     ACCESS:    1860949  HIT:    1119850  MISS:     741099  iACCESS:     780832  iHIT:     496620  iMISS:     284212  dACCESS:    1080117  dHIT:     623230  dMISS:     456887  itACCESS:          0  itHIT:          0  itMISS:          0  dtACCESS:          0  dtHIT:          0  dtMISS:          0
LLC WRITE        ACCESS:     132667  HIT:     126746  MISS:       5921  iACCESS:          0  iHIT:          0  iMISS:          0  dACCESS:     132667  dHIT:     126746  dMISS:       5921  itACCESS:          0  itHIT:          0  itMISS:          0  dtACCESS:          0  dtHIT:          0  dtMISS:          0
LLC TRANSLATION  ACCESS:     156692  HIT:      59693  MISS:      96999  iACCESS:          0  iHIT:          0  iMISS:          0  dACCESS:          0  dHIT:          0  dMISS:          0  itACCESS:       8450  itHIT:       2254  itMISS:       6196  dtACCESS:     148242  dtHIT:      57439  dtMISS:      90803
LLC PREFETCH  REQUESTED:          0  ISSUED:          0  CROSSED:          0  USEFUL:          0  USELESS:          0
LLC AVERAGE iMISS LATENCY: 46.6044 cycles
LLC AVERAGE dMISS LATENCY: 94.3125 cycles
LLC AVERAGE itMISS LATENCY: 0.966953 cycles
LLC AVERAGE dtMISS LATENCY: 14.421 cycles
LLC PAGE CROSSINGS (TLB HIT):         0 
LLC PAGE CROSSINGS (TLB MISS):         0 
LLC AVERAGE MISS LATENCY: 156.305 cycles

PageTableWalker TOTAL       ACCESS:      68080  
PageTableWalker AVERAGE LATENCY: 5.65293 cycles
PageTableWalker TOTAL LATENCY: 384851 cycles

DRAM Statistics
Channel 0
 RQ ROW_BUFFER_HIT:     322288
  ROW_BUFFER_MISS:     792430
 AVG DBUS CONGESTED CYCLE:    3.62912
 WQ ROW_BUFFER_HIT:      20767
  ROW_BUFFER_MISS:      21301  FULL:          0

