last_page:0x200000000000000
VMEM_RES_CAP:0x100000
PAGE_SIZE:4096
LOG2_PAGE_SIZE:12
LOG2_PAGE_TABLE_SIZE:9
page_table_levels:5
WARNING: physical memory size is smaller than virtual memory size
FDiP enabled with aggresivity 16

*** ChampSim Multicore Out-of-Order Simulator ***

Warmup Instructions: 50000000
Simulation Instructions: 100000000
Number of CPUs: 1
Small page size: 4096
Large page size: 2097152

CPU 0 Bimodal branch predictor
Basic BTB sets: 1024 ways: 8 indirect buffer size: 4096 RAS size: 64
Instruction page size distrubution: 0
Loading instruction page size distribution from /home/bsc/bsc018186/scratch/itp_asplos25_AE/dump/srv48_ap.pdst
Data page size distrubution: 0
Loading data page size distribution from /home/bsc/bsc018186/scratch/itp_asplos25_AE/dump/srv48_ap.pdst
cpu0_L2C IP-based stride prefetcher
cpu0_L1D next line prefetcher
CHiRPing...
cpu0_L1I next line prefetcher
Off-chip DRAM Size: 4 GiB Channels: 1 Width: 64-bit Data Rate: 3200 MT/s
Heartbeat CPU 0 instructions: 10000003 cycles: 2500152 heartbeat IPC: 3.99976 cumulative IPC: 3.99976 (Simulation time: 0 hr 0 min 39 sec) 
Heartbeat CPU 0 instructions: 20000002 cycles: 5000153 heartbeat IPC: 4 cumulative IPC: 3.99988 (Simulation time: 0 hr 1 min 20 sec) 
Heartbeat CPU 0 instructions: 30000002 cycles: 7500169 heartbeat IPC: 3.99998 cumulative IPC: 3.99992 (Simulation time: 0 hr 2 min 2 sec) 
Heartbeat CPU 0 instructions: 40000000 cycles: 10000266 heartbeat IPC: 3.99985 cumulative IPC: 3.9999 (Simulation time: 0 hr 2 min 45 sec) 
Heartbeat CPU 0 instructions: 50000002 cycles: 12500891 heartbeat IPC: 3.99901 cumulative IPC: 3.99972 (Simulation time: 0 hr 3 min 27 sec) 
Warmup finished CPU 0 instructions: 50000002 cycles: 12500892 cumulative IPC: 3.99972 (Simulation time: 0 hr 3 min 27 sec) 

Warmup complete CPU 0 instructions: 50000002 cycles: 12500892 (Simulation time: 0 hr 3 min 27 sec) 

Heartbeat CPU 0 instructions: 60000000 cycles: 31082083 heartbeat IPC: 0.538179 cumulative IPC: 0.538179 (Simulation time: 0 hr 4 min 37 sec) 
Heartbeat CPU 0 instructions: 70000002 cycles: 49207931 heartbeat IPC: 0.551699 cumulative IPC: 0.544855 (Simulation time: 0 hr 5 min 47 sec) 
Heartbeat CPU 0 instructions: 80000003 cycles: 67090596 heartbeat IPC: 0.559201 cumulative IPC: 0.549555 (Simulation time: 0 hr 6 min 57 sec) 
Heartbeat CPU 0 instructions: 90000004 cycles: 85146577 heartbeat IPC: 0.553834 cumulative IPC: 0.550618 (Simulation time: 0 hr 8 min 7 sec) 
Heartbeat CPU 0 instructions: 100000000 cycles: 103743793 heartbeat IPC: 0.537715 cumulative IPC: 0.547988 (Simulation time: 0 hr 9 min 18 sec) 
*** Reached end of trace: /gpfs/projects/bsc18/MN4/bsc18/romol/ChampSim/traces/qualcomm_srv/srv48_ap.champsimtrace.xz
Heartbeat CPU 0 instructions: 110000000 cycles: 122152612 heartbeat IPC: 0.543218 cumulative IPC: 0.547188 (Simulation time: 0 hr 10 min 28 sec) 
Heartbeat CPU 0 instructions: 120000000 cycles: 140152711 heartbeat IPC: 0.555553 cumulative IPC: 0.548367 (Simulation time: 0 hr 11 min 38 sec) 
Heartbeat CPU 0 instructions: 130000004 cycles: 157457554 heartbeat IPC: 0.577874 cumulative IPC: 0.55189 (Simulation time: 0 hr 12 min 45 sec) 
Heartbeat CPU 0 instructions: 140000000 cycles: 175135231 heartbeat IPC: 0.565685 cumulative IPC: 0.553389 (Simulation time: 0 hr 13 min 51 sec) 
Heartbeat CPU 0 instructions: 150000003 cycles: 193819166 heartbeat IPC: 0.53522 cumulative IPC: 0.551517 (Simulation time: 0 hr 14 min 58 sec) 
Simulation finished CPU 0 instructions: 100000001 cycles: 181318275 cumulative IPC: 0.551517 (Simulation time: 0 hr 14 min 58 sec) 

Simulation complete CPU 0 instructions: 100000001 cycles: 181318275 (Simulation time: 0 hr 14 min 58 sec) 


ChampSim completed all CPUs

Saving instructions large page distribution to /home/bsc/bsc018186/scratch/itp_asplos25_AE/dump/srv48_ap.pdst...
Saving data large page distribution to /home/bsc/bsc018186/scratch/itp_asplos25_AE/dump/srv48_ap.pdst...
=== Simulation ===
CPU 0 runs /gpfs/projects/bsc18/MN4/bsc18/romol/ChampSim/traces/qualcomm_srv/srv48_ap.champsimtrace.xz

Region of Interest Statistics

CPU 0 cumulative IPC: 0.551517 instructions: 100000001 cycles: 181318275
CPU 0 Branch Prediction Accuracy: 80.0806% MPKI: 35.9868 Average ROB Occupancy at Mispredict: 10.2501
Branch type MPKI
BRANCH_DIRECT_JUMP: 1.34386
BRANCH_INDIRECT: 18.0494
BRANCH_CONDITIONAL: 11.6578
BRANCH_DIRECT_CALL: 2.53507
BRANCH_INDIRECT_CALL: 0.67018
BRANCH_RETURN: 1.73049

Instructions large pages: 0
Instructions small pages: 5912
Large page distribution for instructions: 0%

Data large pages: 0
Data small pages: 4817
Large page distribution for data: 0%

cpu0_L1I TOTAL       ACCESS:   36367741  HIT:   27878125  MISS:    8489616  iACCESS:   36367741  iHIT:   27878125  iMISS:    8489616  dACCESS:          0  dHIT:          0  dMISS:          0  itACCESS:          0  itHIT:          0  itMISS:          0  dtACCESS:          0  dtHIT:          0  dtMISS:          0
cpu0_L1I LOAD         ACCESS:   10614471  HIT:    8288272  MISS:    2326199  iACCESS:   10614471  iHIT:    8288272  iMISS:    2326199  dACCESS:          0  dHIT:          0  dMISS:          0  itACCESS:          0  itHIT:          0  itMISS:          0  dtACCESS:          0  dtHIT:          0  dtMISS:          0
cpu0_L1I RFO          ACCESS:          0  HIT:          0  MISS:          0  iACCESS:          0  iHIT:          0  iMISS:          0  dACCESS:          0  dHIT:          0  dMISS:          0  itACCESS:          0  itHIT:          0  itMISS:          0  dtACCESS:          0  dtHIT:          0  dtMISS:          0
cpu0_L1I PREFETCH     ACCESS:   25753270  HIT:   19589853  MISS:    6163417  iACCESS:   25753270  iHIT:   19589853  iMISS:    6163417  dACCESS:          0  dHIT:          0  dMISS:          0  itACCESS:          0  itHIT:          0  itMISS:          0  dtACCESS:          0  dtHIT:          0  dtMISS:          0
cpu0_L1I WRITE        ACCESS:          0  HIT:          0  MISS:          0  iACCESS:          0  iHIT:          0  iMISS:          0  dACCESS:          0  dHIT:          0  dMISS:          0  itACCESS:          0  itHIT:          0  itMISS:          0  dtACCESS:          0  dtHIT:          0  dtMISS:          0
cpu0_L1I TRANSLATION  ACCESS:          0  HIT:          0  MISS:          0  iACCESS:          0  iHIT:          0  iMISS:          0  dACCESS:          0  dHIT:          0  dMISS:          0  itACCESS:          0  itHIT:          0  itMISS:          0  dtACCESS:          0  dtHIT:          0  dtMISS:          0
cpu0_L1I PREFETCH  REQUESTED:   28124755  ISSUED:   28123739  CROSSED:          0  USEFUL:    2027065  USELESS:     659913
cpu0_L1I AVERAGE iMISS LATENCY: 18.2308 cycles
cpu0_L1I AVERAGE dMISS LATENCY: 0 cycles
cpu0_L1I AVERAGE itMISS LATENCY: 0 cycles
cpu0_L1I AVERAGE dtMISS LATENCY: 0 cycles
cpu0_L1I PAGE CROSSINGS (TLB HIT):         0 
cpu0_L1I PAGE CROSSINGS (TLB MISS):         0 
cpu0_L1I AVERAGE MISS LATENCY: 18.2308 cycles
cpu0_ITLB TOTAL       ACCESS:   30384474  HIT:   28430938  MISS:    1953536  iACCESS:   30384474  iHIT:   28430938  iMISS:    1953536  dACCESS:          0  dHIT:          0  dMISS:          0  itACCESS:          0  itHIT:          0  itMISS:          0  dtACCESS:          0  dtHIT:          0  dtMISS:          0
cpu0_ITLB LOAD         ACCESS:   30384474  HIT:   28430938  MISS:    1953536  iACCESS:   30384474  iHIT:   28430938  iMISS:    1953536  dACCESS:          0  dHIT:          0  dMISS:          0  itACCESS:          0  itHIT:          0  itMISS:          0  dtACCESS:          0  dtHIT:          0  dtMISS:          0
cpu0_ITLB RFO          ACCESS:          0  HIT:          0  MISS:          0  iACCESS:          0  iHIT:          0  iMISS:          0  dACCESS:          0  dHIT:          0  dMISS:          0  itACCESS:          0  itHIT:          0  itMISS:          0  dtACCESS:          0  dtHIT:          0  dtMISS:          0
cpu0_ITLB PREFETCH     ACCESS:          0  HIT:          0  MISS:          0  iACCESS:          0  iHIT:          0  iMISS:          0  dACCESS:          0  dHIT:          0  dMISS:          0  itACCESS:          0  itHIT:          0  itMISS:          0  dtACCESS:          0  dtHIT:          0  dtMISS:          0
cpu0_ITLB WRITE        ACCESS:          0  HIT:          0  MISS:          0  iACCESS:          0  iHIT:          0  iMISS:          0  dACCESS:          0  dHIT:          0  dMISS:          0  itACCESS:          0  itHIT:          0  itMISS:          0  dtACCESS:          0  dtHIT:          0  dtMISS:          0
cpu0_ITLB TRANSLATION  ACCESS:          0  HIT:          0  MISS:          0  iACCESS:          0  iHIT:          0  iMISS:          0  dACCESS:          0  dHIT:          0  dMISS:          0  itACCESS:          0  itHIT:          0  itMISS:          0  dtACCESS:          0  dtHIT:          0  dtMISS:          0
cpu0_ITLB PREFETCH  REQUESTED:          0  ISSUED:          0  CROSSED:          0  USEFUL:     330944  USELESS:      66054
cpu0_ITLB AVERAGE iMISS LATENCY: 4.12453 cycles
cpu0_ITLB AVERAGE dMISS LATENCY: 0 cycles
cpu0_ITLB AVERAGE itMISS LATENCY: 0 cycles
cpu0_ITLB AVERAGE dtMISS LATENCY: 0 cycles
cpu0_ITLB PAGE CROSSINGS (TLB HIT):         0 
cpu0_ITLB PAGE CROSSINGS (TLB MISS):         0 
cpu0_ITLB AVERAGE MISS LATENCY: 4.12453 cycles
cpu0_DTLB TOTAL       ACCESS:   27974728  HIT:   26238322  MISS:    1736406  iACCESS:          0  iHIT:          0  iMISS:          0  dACCESS:   27974728  dHIT:   26238322  dMISS:    1736406  itACCESS:          0  itHIT:          0  itMISS:          0  dtACCESS:          0  dtHIT:          0  dtMISS:          0
cpu0_DTLB LOAD         ACCESS:   27974728  HIT:   26238322  MISS:    1736406  iACCESS:          0  iHIT:          0  iMISS:          0  dACCESS:   27974728  dHIT:   26238322  dMISS:    1736406  itACCESS:          0  itHIT:          0  itMISS:          0  dtACCESS:          0  dtHIT:          0  dtMISS:          0
cpu0_DTLB RFO          ACCESS:          0  HIT:          0  MISS:          0  iACCESS:          0  iHIT:          0  iMISS:          0  dACCESS:          0  dHIT:          0  dMISS:          0  itACCESS:          0  itHIT:          0  itMISS:          0  dtACCESS:          0  dtHIT:          0  dtMISS:          0
cpu0_DTLB PREFETCH     ACCESS:          0  HIT:          0  MISS:          0  iACCESS:          0  iHIT:          0  iMISS:          0  dACCESS:          0  dHIT:          0  dMISS:          0  itACCESS:          0  itHIT:          0  itMISS:          0  dtACCESS:          0  dtHIT:          0  dtMISS:          0
cpu0_DTLB WRITE        ACCESS:          0  HIT:          0  MISS:          0  iACCESS:          0  iHIT:          0  iMISS:          0  dACCESS:          0  dHIT:          0  dMISS:          0  itACCESS:          0  itHIT:          0  itMISS:          0  dtACCESS:          0  dtHIT:          0  dtMISS:          0
cpu0_DTLB TRANSLATION  ACCESS:          0  HIT:          0  MISS:          0  iACCESS:          0  iHIT:          0  iMISS:          0  dACCESS:          0  dHIT:          0  dMISS:          0  itACCESS:          0  itHIT:          0  itMISS:          0  dtACCESS:          0  dtHIT:          0  dtMISS:          0
cpu0_DTLB PREFETCH  REQUESTED:          0  ISSUED:          0  CROSSED:          0  USEFUL:          0  USELESS:          0
cpu0_DTLB AVERAGE iMISS LATENCY: 0 cycles
cpu0_DTLB AVERAGE dMISS LATENCY: 12.4564 cycles
cpu0_DTLB AVERAGE itMISS LATENCY: 0 cycles
cpu0_DTLB AVERAGE dtMISS LATENCY: 0 cycles
cpu0_DTLB PAGE CROSSINGS (TLB HIT):         0 
cpu0_DTLB PAGE CROSSINGS (TLB MISS):         0 
cpu0_DTLB AVERAGE MISS LATENCY: 12.4564 cycles
cpu0_STLB TOTAL       ACCESS:    1500688  HIT:    1274161  MISS:     226527  iACCESS:     397010  iHIT:     310170  iMISS:      86840  dACCESS:    1103678  dHIT:     963991  dMISS:     139687  itACCESS:          0  itHIT:          0  itMISS:          0  dtACCESS:          0  dtHIT:          0  dtMISS:          0
cpu0_STLB LOAD         ACCESS:    1500688  HIT:    1274161  MISS:     226527  iACCESS:     397010  iHIT:     310170  iMISS:      86840  dACCESS:    1103678  dHIT:     963991  dMISS:     139687  itACCESS:          0  itHIT:          0  itMISS:          0  dtACCESS:          0  dtHIT:          0  dtMISS:          0
cpu0_STLB RFO          ACCESS:          0  HIT:          0  MISS:          0  iACCESS:          0  iHIT:          0  iMISS:          0  dACCESS:          0  dHIT:          0  dMISS:          0  itACCESS:          0  itHIT:          0  itMISS:          0  dtACCESS:          0  dtHIT:          0  dtMISS:          0
cpu0_STLB PREFETCH     ACCESS:          0  HIT:          0  MISS:          0  iACCESS:          0  iHIT:          0  iMISS:          0  dACCESS:          0  dHIT:          0  dMISS:          0  itACCESS:          0  itHIT:          0  itMISS:          0  dtACCESS:          0  dtHIT:          0  dtMISS:          0
cpu0_STLB WRITE        ACCESS:          0  HIT:          0  MISS:          0  iACCESS:          0  iHIT:          0  iMISS:          0  dACCESS:          0  dHIT:          0  dMISS:          0  itACCESS:          0  itHIT:          0  itMISS:          0  dtACCESS:          0  dtHIT:          0  dtMISS:          0
cpu0_STLB TRANSLATION  ACCESS:          0  HIT:          0  MISS:          0  iACCESS:          0  iHIT:          0  iMISS:          0  dACCESS:          0  dHIT:          0  dMISS:          0  itACCESS:          0  itHIT:          0  itMISS:          0  dtACCESS:          0  dtHIT:          0  dtMISS:          0
cpu0_STLB PREFETCH  REQUESTED:          0  ISSUED:          0  CROSSED:          0  USEFUL:          0  USELESS:          0
cpu0_STLB AVERAGE iMISS LATENCY: 21.6155 cycles
cpu0_STLB AVERAGE dMISS LATENCY: 56.5063 cycles
cpu0_STLB AVERAGE itMISS LATENCY: 0 cycles
cpu0_STLB AVERAGE dtMISS LATENCY: 0 cycles
cpu0_STLB PAGE CROSSINGS (TLB HIT):         0 
cpu0_STLB PAGE CROSSINGS (TLB MISS):         0 
cpu0_STLB AVERAGE MISS LATENCY: 78.1217 cycles
cpu0_L1D TOTAL       ACCESS:   42648922  HIT:   38540657  MISS:    4108265  iACCESS:          0  iHIT:          0  iMISS:          0  dACCESS:   42365076  dHIT:   38516805  dMISS:    3848271  itACCESS:      92736  itHIT:      12822  itMISS:      79914  dtACCESS:     191110  dtHIT:      11030  dtMISS:     180080
cpu0_L1D LOAD         ACCESS:   19419854  HIT:   17666060  MISS:    1753794  iACCESS:          0  iHIT:          0  iMISS:          0  dACCESS:   19419854  dHIT:   17666060  dMISS:    1753794  itACCESS:          0  itHIT:          0  itMISS:          0  dtACCESS:          0  dtHIT:          0  dtMISS:          0
cpu0_L1D RFO          ACCESS:          0  HIT:          0  MISS:          0  iACCESS:          0  iHIT:          0  iMISS:          0  dACCESS:          0  dHIT:          0  dMISS:          0  itACCESS:          0  itHIT:          0  itMISS:          0  dtACCESS:          0  dtHIT:          0  dtMISS:          0
cpu0_L1D PREFETCH     ACCESS:   12799294  HIT:   11154754  MISS:    1644540  iACCESS:          0  iHIT:          0  iMISS:          0  dACCESS:   12799294  dHIT:   11154754  dMISS:    1644540  itACCESS:          0  itHIT:          0  itMISS:          0  dtACCESS:          0  dtHIT:          0  dtMISS:          0
cpu0_L1D WRITE        ACCESS:   10145928  HIT:    9695991  MISS:     449937  iACCESS:          0  iHIT:          0  iMISS:          0  dACCESS:   10145928  dHIT:    9695991  dMISS:     449937  itACCESS:          0  itHIT:          0  itMISS:          0  dtACCESS:          0  dtHIT:          0  dtMISS:          0
cpu0_L1D TRANSLATION  ACCESS:     283846  HIT:      23852  MISS:     259994  iACCESS:          0  iHIT:          0  iMISS:          0  dACCESS:          0  dHIT:          0  dMISS:          0  itACCESS:      92736  itHIT:      12822  itMISS:      79914  dtACCESS:     191110  dtHIT:      11030  dtMISS:     180080
cpu0_L1D PREFETCH  REQUESTED:   19419854  ISSUED:   17258630  CROSSED:          0  USEFUL:     312119  USELESS:     707663
cpu0_L1D AVERAGE iMISS LATENCY: 0 cycles
cpu0_L1D AVERAGE dMISS LATENCY: 38.8936 cycles
cpu0_L1D AVERAGE itMISS LATENCY: 1.01038 cycles
cpu0_L1D AVERAGE dtMISS LATENCY: 2.65647 cycles
cpu0_L1D PAGE CROSSINGS (TLB HIT):         0 
cpu0_L1D PAGE CROSSINGS (TLB MISS):         0 
cpu0_L1D AVERAGE MISS LATENCY: 42.5604 cycles
cpu0_L2C TOTAL       ACCESS:    7366072  HIT:    1633719  MISS:    5732353  iACCESS:    3428242  iHIT:     829742  iMISS:    2598500  dACCESS:    3681744  dHIT:     648270  dMISS:    3033474  itACCESS:      79914  itHIT:      54761  itMISS:      25153  dtACCESS:     176172  dtHIT:     100946  dtMISS:      75226
cpu0_L2C LOAD         ACCESS:    1734976  HIT:     253173  MISS:    1481803  iACCESS:     778969  iHIT:     129260  iMISS:     649709  dACCESS:     956007  dHIT:     123913  dMISS:     832094  itACCESS:          0  itHIT:          0  itMISS:          0  dtACCESS:          0  dtHIT:          0  dtMISS:          0
cpu0_L2C RFO          ACCESS:     162449  HIT:      43721  MISS:     118728  iACCESS:          0  iHIT:          0  iMISS:          0  dACCESS:     162449  dHIT:      43721  dMISS:     118728  itACCESS:          0  itHIT:          0  itMISS:          0  dtACCESS:          0  dtHIT:          0  dtMISS:          0
cpu0_L2C PREFETCH     ACCESS:    4937208  HIT:    1060461  MISS:    3876747  iACCESS:    2649273  iHIT:     700482  iMISS:    1948791  dACCESS:    2287935  dHIT:     359979  dMISS:    1927956  itACCESS:          0  itHIT:          0  itMISS:          0  dtACCESS:          0  dtHIT:          0  dtMISS:          0
cpu0_L2C WRITE        ACCESS:     275353  HIT:     120657  MISS:     154696  iACCESS:          0  iHIT:          0  iMISS:          0  dACCESS:     275353  dHIT:     120657  dMISS:     154696  itACCESS:          0  itHIT:          0  itMISS:          0  dtACCESS:          0  dtHIT:          0  dtMISS:          0
cpu0_L2C TRANSLATION  ACCESS:     256086  HIT:     155707  MISS:     100379  iACCESS:          0  iHIT:          0  iMISS:          0  dACCESS:          0  dHIT:          0  dMISS:          0  itACCESS:      79914  itHIT:      54761  itMISS:      25153  dtACCESS:     176172  dtHIT:     100946  dtMISS:      75226
cpu0_L2C PREFETCH  REQUESTED:    1543050  ISSUED:    1543047  CROSSED:          0  USEFUL:     432978  USELESS:     436343
cpu0_L2C AVERAGE iMISS LATENCY: 21.6024 cycles
cpu0_L2C AVERAGE dMISS LATENCY: 35.1249 cycles
cpu0_L2C AVERAGE itMISS LATENCY: 0.593936 cycles
cpu0_L2C AVERAGE dtMISS LATENCY: 1.61294 cycles
cpu0_L2C PAGE CROSSINGS (TLB HIT):         0 
cpu0_L2C PAGE CROSSINGS (TLB MISS):         0 
cpu0_L2C AVERAGE MISS LATENCY: 58.9341 cycles
LLC TOTAL       ACCESS:    5545799  HIT:    4051915  MISS:    1493884  iACCESS:    2521028  iHIT:    2004203  iMISS:     516825  dACCESS:    2924392  dHIT:    2006128  dMISS:     918264  itACCESS:      25153  itHIT:       8531  itMISS:      16622  dtACCESS:      75226  dtHIT:      33053  dtMISS:      42173
LLC LOAD         ACCESS:    1475222  HIT:    1144257  MISS:     330965  iACCESS:     648448  iHIT:     541384  iMISS:     107064  dACCESS:     826774  dHIT:     602873  dMISS:     223901  itACCESS:          0  itHIT:          0  itMISS:          0  dtACCESS:          0  dtHIT:          0  dtMISS:          0
LLC RFO          ACCESS:     118709  HIT:      65213  MISS:      53496  iACCESS:          0  iHIT:          0  iMISS:          0  dACCESS:     118709  dHIT:      65213  dMISS:      53496  itACCESS:          0  itHIT:          0  itMISS:          0  dtACCESS:          0  dtHIT:          0  dtMISS:          0
LLC PREFETCH     ACCESS:    3699149  HIT:    2659031  MISS:    1040118  iACCESS:    1872580  iHIT:    1462819  iMISS:     409761  dACCESS:    1826569  dHIT:    1196212  dMISS:     630357  itACCESS:          0  itHIT:          0  itMISS:          0  dtACCESS:          0  dtHIT:          0  dtMISS:          0
LLC WRITE        ACCESS:     152340  HIT:     141830  MISS:      10510  iACCESS:          0  iHIT:          0  iMISS:          0  dACCESS:     152340  dHIT:     141830  dMISS:      10510  itACCESS:          0  itHIT:          0  itMISS:          0  dtACCESS:          0  dtHIT:          0  dtMISS:          0
LLC TRANSLATION  ACCESS:     100379  HIT:      41584  MISS:      58795  iACCESS:          0  iHIT:          0  iMISS:          0  dACCESS:          0  dHIT:          0  dMISS:          0  itACCESS:      25153  itHIT:       8531  itMISS:      16622  dtACCESS:      75226  dtHIT:      33053  dtMISS:      42173
LLC PREFETCH  REQUESTED:          0  ISSUED:          0  CROSSED:          0  USEFUL:          0  USELESS:          0
LLC AVERAGE iMISS LATENCY: 50.236 cycles
LLC AVERAGE dMISS LATENCY: 99.6531 cycles
LLC AVERAGE itMISS LATENCY: 1.94895 cycles
LLC AVERAGE dtMISS LATENCY: 5.20541 cycles
LLC PAGE CROSSINGS (TLB HIT):         0 
LLC PAGE CROSSINGS (TLB MISS):         0 
LLC AVERAGE MISS LATENCY: 157.044 cycles

PageTableWalker TOTAL       ACCESS:     113313  
PageTableWalker AVERAGE LATENCY: 4.18358 cycles
PageTableWalker TOTAL LATENCY: 474053 cycles

DRAM Statistics
Channel 0
 RQ ROW_BUFFER_HIT:     447909
  ROW_BUFFER_MISS:    1024326
 AVG DBUS CONGESTED CYCLE:    3.63399
 WQ ROW_BUFFER_HIT:      29603
  ROW_BUFFER_MISS:      23822  FULL:          0

