last_page:0x200000000000000
VMEM_RES_CAP:0x100000
PAGE_SIZE:4096
LOG2_PAGE_SIZE:12
LOG2_PAGE_TABLE_SIZE:9
page_table_levels:5
WARNING: physical memory size is smaller than virtual memory size
FDiP enabled with aggresivity 16

*** ChampSim Multicore Out-of-Order Simulator ***

Warmup Instructions: 50000000
Simulation Instructions: 100000000
Number of CPUs: 1
Small page size: 4096
Large page size: 2097152

CPU 0 Bimodal branch predictor
Basic BTB sets: 1024 ways: 8 indirect buffer size: 4096 RAS size: 64
Instruction page size distrubution: 0
Loading instruction page size distribution from /home/bsc/bsc018186/scratch/itp_asplos25_AE/dump/srv45_ap.pdst
Data page size distrubution: 0
Loading data page size distribution from /home/bsc/bsc018186/scratch/itp_asplos25_AE/dump/srv45_ap.pdst
cpu0_L2C IP-based stride prefetcher
cpu0_L1D next line prefetcher
cpu0_L1I next line prefetcher
Off-chip DRAM Size: 4 GiB Channels: 1 Width: 64-bit Data Rate: 3200 MT/s
Heartbeat CPU 0 instructions: 10000002 cycles: 2500285 heartbeat IPC: 3.99955 cumulative IPC: 3.99955 (Simulation time: 0 hr 0 min 35 sec) 
Heartbeat CPU 0 instructions: 20000003 cycles: 5000286 heartbeat IPC: 4 cumulative IPC: 3.99978 (Simulation time: 0 hr 1 min 12 sec) 
Heartbeat CPU 0 instructions: 30000002 cycles: 7500496 heartbeat IPC: 3.99967 cumulative IPC: 3.99974 (Simulation time: 0 hr 1 min 49 sec) 
Heartbeat CPU 0 instructions: 40000000 cycles: 10000496 heartbeat IPC: 4 cumulative IPC: 3.99981 (Simulation time: 0 hr 2 min 27 sec) 
Heartbeat CPU 0 instructions: 50000001 cycles: 12500580 heartbeat IPC: 3.99987 cumulative IPC: 3.99982 (Simulation time: 0 hr 3 min 5 sec) 
Warmup finished CPU 0 instructions: 50000001 cycles: 12500581 cumulative IPC: 3.99982 (Simulation time: 0 hr 3 min 5 sec) 

Warmup complete CPU 0 instructions: 50000001 cycles: 12500581 (Simulation time: 0 hr 3 min 5 sec) 

Heartbeat CPU 0 instructions: 60000000 cycles: 27555911 heartbeat IPC: 0.664217 cumulative IPC: 0.664217 (Simulation time: 0 hr 4 min 6 sec) 
Heartbeat CPU 0 instructions: 70000004 cycles: 42422472 heartbeat IPC: 0.672651 cumulative IPC: 0.668408 (Simulation time: 0 hr 5 min 7 sec) 
Heartbeat CPU 0 instructions: 80000001 cycles: 57580665 heartbeat IPC: 0.65971 cumulative IPC: 0.665483 (Simulation time: 0 hr 6 min 8 sec) 
Heartbeat CPU 0 instructions: 90000004 cycles: 71667990 heartbeat IPC: 0.709859 cumulative IPC: 0.676048 (Simulation time: 0 hr 7 min 8 sec) 
Heartbeat CPU 0 instructions: 100000000 cycles: 86101886 heartbeat IPC: 0.692814 cumulative IPC: 0.679336 (Simulation time: 0 hr 8 min 9 sec) 
*** Reached end of trace: /gpfs/projects/bsc18/MN4/bsc18/romol/ChampSim/traces/qualcomm_srv/srv45_ap.champsimtrace.xz
Heartbeat CPU 0 instructions: 110000001 cycles: 100646026 heartbeat IPC: 0.687563 cumulative IPC: 0.680694 (Simulation time: 0 hr 9 min 10 sec) 
Heartbeat CPU 0 instructions: 120000001 cycles: 114053968 heartbeat IPC: 0.745827 cumulative IPC: 0.689293 (Simulation time: 0 hr 10 min 9 sec) 
Heartbeat CPU 0 instructions: 130000000 cycles: 129431783 heartbeat IPC: 0.650288 cumulative IPC: 0.684163 (Simulation time: 0 hr 11 min 11 sec) 
Heartbeat CPU 0 instructions: 140000003 cycles: 142537089 heartbeat IPC: 0.76305 cumulative IPC: 0.692114 (Simulation time: 0 hr 12 min 10 sec) 
Heartbeat CPU 0 instructions: 150000001 cycles: 156877278 heartbeat IPC: 0.697341 cumulative IPC: 0.692633 (Simulation time: 0 hr 13 min 11 sec) 
Simulation finished CPU 0 instructions: 100000000 cycles: 144376698 cumulative IPC: 0.692633 (Simulation time: 0 hr 13 min 11 sec) 

Simulation complete CPU 0 instructions: 100000000 cycles: 144376698 (Simulation time: 0 hr 13 min 11 sec) 


ChampSim completed all CPUs

Saving instructions large page distribution to /home/bsc/bsc018186/scratch/itp_asplos25_AE/dump/srv45_ap.pdst...
Saving data large page distribution to /home/bsc/bsc018186/scratch/itp_asplos25_AE/dump/srv45_ap.pdst...
=== Simulation ===
CPU 0 runs /gpfs/projects/bsc18/MN4/bsc18/romol/ChampSim/traces/qualcomm_srv/srv45_ap.champsimtrace.xz

Region of Interest Statistics

CPU 0 cumulative IPC: 0.692633 instructions: 100000000 cycles: 144376698
CPU 0 Branch Prediction Accuracy: 82.716% MPKI: 30.9311 Average ROB Occupancy at Mispredict: 12.0428
Branch type MPKI
BRANCH_DIRECT_JUMP: 1.06716
BRANCH_INDIRECT: 15.7697
BRANCH_CONDITIONAL: 10.2538
BRANCH_DIRECT_CALL: 1.9307
BRANCH_INDIRECT_CALL: 0.526691
BRANCH_RETURN: 1.38308

Instructions large pages: 0
Instructions small pages: 1017
Large page distribution for instructions: 0%

Data large pages: 0
Data small pages: 9711
Large page distribution for data: 0%

cpu0_L1I TOTAL       ACCESS:   35572579  HIT:   27182522  MISS:    8390057  iACCESS:   35572579  iHIT:   27182522  iMISS:    8390057  dACCESS:          0  dHIT:          0  dMISS:          0  itACCESS:          0  itHIT:          0  itMISS:          0  dtACCESS:          0  dtHIT:          0  dtMISS:          0
cpu0_L1I LOAD         ACCESS:   10420878  HIT:    8079150  MISS:    2341728  iACCESS:   10420878  iHIT:    8079150  iMISS:    2341728  dACCESS:          0  dHIT:          0  dMISS:          0  itACCESS:          0  itHIT:          0  itMISS:          0  dtACCESS:          0  dtHIT:          0  dtMISS:          0
cpu0_L1I RFO          ACCESS:          0  HIT:          0  MISS:          0  iACCESS:          0  iHIT:          0  iMISS:          0  dACCESS:          0  dHIT:          0  dMISS:          0  itACCESS:          0  itHIT:          0  itMISS:          0  dtACCESS:          0  dtHIT:          0  dtMISS:          0
cpu0_L1I PREFETCH     ACCESS:   25151701  HIT:   19103372  MISS:    6048329  iACCESS:   25151701  iHIT:   19103372  iMISS:    6048329  dACCESS:          0  dHIT:          0  dMISS:          0  itACCESS:          0  itHIT:          0  itMISS:          0  dtACCESS:          0  dtHIT:          0  dtMISS:          0
cpu0_L1I WRITE        ACCESS:          0  HIT:          0  MISS:          0  iACCESS:          0  iHIT:          0  iMISS:          0  dACCESS:          0  dHIT:          0  dMISS:          0  itACCESS:          0  itHIT:          0  itMISS:          0  dtACCESS:          0  dtHIT:          0  dtMISS:          0
cpu0_L1I TRANSLATION  ACCESS:          0  HIT:          0  MISS:          0  iACCESS:          0  iHIT:          0  iMISS:          0  dACCESS:          0  dHIT:          0  dMISS:          0  itACCESS:          0  itHIT:          0  itMISS:          0  dtACCESS:          0  dtHIT:          0  dtMISS:          0
cpu0_L1I PREFETCH  REQUESTED:   27467416  ISSUED:   27465287  CROSSED:          0  USEFUL:    1946829  USELESS:     629080
cpu0_L1I AVERAGE iMISS LATENCY: 13.6333 cycles
cpu0_L1I AVERAGE dMISS LATENCY: 0 cycles
cpu0_L1I AVERAGE itMISS LATENCY: 0 cycles
cpu0_L1I AVERAGE dtMISS LATENCY: 0 cycles
cpu0_L1I PAGE CROSSINGS (TLB HIT):         0 
cpu0_L1I PAGE CROSSINGS (TLB MISS):         0 
cpu0_L1I AVERAGE MISS LATENCY: 13.6333 cycles
cpu0_ITLB TOTAL       ACCESS:   29439866  HIT:   27515016  MISS:    1924850  iACCESS:   29439866  iHIT:   27515016  iMISS:    1924850  dACCESS:          0  dHIT:          0  dMISS:          0  itACCESS:          0  itHIT:          0  itMISS:          0  dtACCESS:          0  dtHIT:          0  dtMISS:          0
cpu0_ITLB LOAD         ACCESS:   29439866  HIT:   27515016  MISS:    1924850  iACCESS:   29439866  iHIT:   27515016  iMISS:    1924850  dACCESS:          0  dHIT:          0  dMISS:          0  itACCESS:          0  itHIT:          0  itMISS:          0  dtACCESS:          0  dtHIT:          0  dtMISS:          0
cpu0_ITLB RFO          ACCESS:          0  HIT:          0  MISS:          0  iACCESS:          0  iHIT:          0  iMISS:          0  dACCESS:          0  dHIT:          0  dMISS:          0  itACCESS:          0  itHIT:          0  itMISS:          0  dtACCESS:          0  dtHIT:          0  dtMISS:          0
cpu0_ITLB PREFETCH     ACCESS:          0  HIT:          0  MISS:          0  iACCESS:          0  iHIT:          0  iMISS:          0  dACCESS:          0  dHIT:          0  dMISS:          0  itACCESS:          0  itHIT:          0  itMISS:          0  dtACCESS:          0  dtHIT:          0  dtMISS:          0
cpu0_ITLB WRITE        ACCESS:          0  HIT:          0  MISS:          0  iACCESS:          0  iHIT:          0  iMISS:          0  dACCESS:          0  dHIT:          0  dMISS:          0  itACCESS:          0  itHIT:          0  itMISS:          0  dtACCESS:          0  dtHIT:          0  dtMISS:          0
cpu0_ITLB TRANSLATION  ACCESS:          0  HIT:          0  MISS:          0  iACCESS:          0  iHIT:          0  iMISS:          0  dACCESS:          0  dHIT:          0  dMISS:          0  itACCESS:          0  itHIT:          0  itMISS:          0  dtACCESS:          0  dtHIT:          0  dtMISS:          0
cpu0_ITLB PREFETCH  REQUESTED:          0  ISSUED:          0  CROSSED:          0  USEFUL:     317826  USELESS:      63222
cpu0_ITLB AVERAGE iMISS LATENCY: 3.24247 cycles
cpu0_ITLB AVERAGE dMISS LATENCY: 0 cycles
cpu0_ITLB AVERAGE itMISS LATENCY: 0 cycles
cpu0_ITLB AVERAGE dtMISS LATENCY: 0 cycles
cpu0_ITLB PAGE CROSSINGS (TLB HIT):         0 
cpu0_ITLB PAGE CROSSINGS (TLB MISS):         0 
cpu0_ITLB AVERAGE MISS LATENCY: 3.24247 cycles
cpu0_DTLB TOTAL       ACCESS:   27765086  HIT:   25685601  MISS:    2079485  iACCESS:          0  iHIT:          0  iMISS:          0  dACCESS:   27765086  dHIT:   25685601  dMISS:    2079485  itACCESS:          0  itHIT:          0  itMISS:          0  dtACCESS:          0  dtHIT:          0  dtMISS:          0
cpu0_DTLB LOAD         ACCESS:   27765086  HIT:   25685601  MISS:    2079485  iACCESS:          0  iHIT:          0  iMISS:          0  dACCESS:   27765086  dHIT:   25685601  dMISS:    2079485  itACCESS:          0  itHIT:          0  itMISS:          0  dtACCESS:          0  dtHIT:          0  dtMISS:          0
cpu0_DTLB RFO          ACCESS:          0  HIT:          0  MISS:          0  iACCESS:          0  iHIT:          0  iMISS:          0  dACCESS:          0  dHIT:          0  dMISS:          0  itACCESS:          0  itHIT:          0  itMISS:          0  dtACCESS:          0  dtHIT:          0  dtMISS:          0
cpu0_DTLB PREFETCH     ACCESS:          0  HIT:          0  MISS:          0  iACCESS:          0  iHIT:          0  iMISS:          0  dACCESS:          0  dHIT:          0  dMISS:          0  itACCESS:          0  itHIT:          0  itMISS:          0  dtACCESS:          0  dtHIT:          0  dtMISS:          0
cpu0_DTLB WRITE        ACCESS:          0  HIT:          0  MISS:          0  iACCESS:          0  iHIT:          0  iMISS:          0  dACCESS:          0  dHIT:          0  dMISS:          0  itACCESS:          0  itHIT:          0  itMISS:          0  dtACCESS:          0  dtHIT:          0  dtMISS:          0
cpu0_DTLB TRANSLATION  ACCESS:          0  HIT:          0  MISS:          0  iACCESS:          0  iHIT:          0  iMISS:          0  dACCESS:          0  dHIT:          0  dMISS:          0  itACCESS:          0  itHIT:          0  itMISS:          0  dtACCESS:          0  dtHIT:          0  dtMISS:          0
cpu0_DTLB PREFETCH  REQUESTED:          0  ISSUED:          0  CROSSED:          0  USEFUL:          0  USELESS:          0
cpu0_DTLB AVERAGE iMISS LATENCY: 0 cycles
cpu0_DTLB AVERAGE dMISS LATENCY: 10.1987 cycles
cpu0_DTLB AVERAGE itMISS LATENCY: 0 cycles
cpu0_DTLB AVERAGE dtMISS LATENCY: 0 cycles
cpu0_DTLB PAGE CROSSINGS (TLB HIT):         0 
cpu0_DTLB PAGE CROSSINGS (TLB MISS):         0 
cpu0_DTLB AVERAGE MISS LATENCY: 10.1987 cycles
cpu0_STLB TOTAL       ACCESS:    1625695  HIT:    1451421  MISS:     174274  iACCESS:     381077  iHIT:     319970  iMISS:      61107  dACCESS:    1244618  dHIT:    1131451  dMISS:     113167  itACCESS:          0  itHIT:          0  itMISS:          0  dtACCESS:          0  dtHIT:          0  dtMISS:          0
cpu0_STLB LOAD         ACCESS:    1625695  HIT:    1451421  MISS:     174274  iACCESS:     381077  iHIT:     319970  iMISS:      61107  dACCESS:    1244618  dHIT:    1131451  dMISS:     113167  itACCESS:          0  itHIT:          0  itMISS:          0  dtACCESS:          0  dtHIT:          0  dtMISS:          0
cpu0_STLB RFO          ACCESS:          0  HIT:          0  MISS:          0  iACCESS:          0  iHIT:          0  iMISS:          0  dACCESS:          0  dHIT:          0  dMISS:          0  itACCESS:          0  itHIT:          0  itMISS:          0  dtACCESS:          0  dtHIT:          0  dtMISS:          0
cpu0_STLB PREFETCH     ACCESS:          0  HIT:          0  MISS:          0  iACCESS:          0  iHIT:          0  iMISS:          0  dACCESS:          0  dHIT:          0  dMISS:          0  itACCESS:          0  itHIT:          0  itMISS:          0  dtACCESS:          0  dtHIT:          0  dtMISS:          0
cpu0_STLB WRITE        ACCESS:          0  HIT:          0  MISS:          0  iACCESS:          0  iHIT:          0  iMISS:          0  dACCESS:          0  dHIT:          0  dMISS:          0  itACCESS:          0  itHIT:          0  itMISS:          0  dtACCESS:          0  dtHIT:          0  dtMISS:          0
cpu0_STLB TRANSLATION  ACCESS:          0  HIT:          0  MISS:          0  iACCESS:          0  iHIT:          0  iMISS:          0  dACCESS:          0  dHIT:          0  dMISS:          0  itACCESS:          0  itHIT:          0  itMISS:          0  dtACCESS:          0  dtHIT:          0  dtMISS:          0
cpu0_STLB PREFETCH  REQUESTED:          0  ISSUED:          0  CROSSED:          0  USEFUL:          0  USELESS:          0
cpu0_STLB AVERAGE iMISS LATENCY: 18.5164 cycles
cpu0_STLB AVERAGE dMISS LATENCY: 64.7943 cycles
cpu0_STLB AVERAGE itMISS LATENCY: 0 cycles
cpu0_STLB AVERAGE dtMISS LATENCY: 0 cycles
cpu0_STLB PAGE CROSSINGS (TLB HIT):         0 
cpu0_STLB PAGE CROSSINGS (TLB MISS):         0 
cpu0_STLB AVERAGE MISS LATENCY: 83.3107 cycles
cpu0_L1D TOTAL       ACCESS:   41568155  HIT:   38121838  MISS:    3446317  iACCESS:          0  iHIT:          0  iMISS:          0  dACCESS:   41332846  dHIT:   38100942  dMISS:    3231904  itACCESS:      66327  itHIT:       9533  itMISS:      56794  dtACCESS:     168982  dtHIT:      11363  dtMISS:     157619
cpu0_L1D LOAD         ACCESS:   18954566  HIT:   17480222  MISS:    1474344  iACCESS:          0  iHIT:          0  iMISS:          0  dACCESS:   18954566  dHIT:   17480222  dMISS:    1474344  itACCESS:          0  itHIT:          0  itMISS:          0  dtACCESS:          0  dtHIT:          0  dtMISS:          0
cpu0_L1D RFO          ACCESS:          0  HIT:          0  MISS:          0  iACCESS:          0  iHIT:          0  iMISS:          0  dACCESS:          0  dHIT:          0  dMISS:          0  itACCESS:          0  itHIT:          0  itMISS:          0  dtACCESS:          0  dtHIT:          0  dtMISS:          0
cpu0_L1D PREFETCH     ACCESS:   12216975  HIT:   10876230  MISS:    1340745  iACCESS:          0  iHIT:          0  iMISS:          0  dACCESS:   12216975  dHIT:   10876230  dMISS:    1340745  itACCESS:          0  itHIT:          0  itMISS:          0  dtACCESS:          0  dtHIT:          0  dtMISS:          0
cpu0_L1D WRITE        ACCESS:   10161305  HIT:    9744490  MISS:     416815  iACCESS:          0  iHIT:          0  iMISS:          0  dACCESS:   10161305  dHIT:    9744490  dMISS:     416815  itACCESS:          0  itHIT:          0  itMISS:          0  dtACCESS:          0  dtHIT:          0  dtMISS:          0
cpu0_L1D TRANSLATION  ACCESS:     235309  HIT:      20896  MISS:     214413  iACCESS:          0  iHIT:          0  iMISS:          0  dACCESS:          0  dHIT:          0  dMISS:          0  itACCESS:      66327  itHIT:       9533  itMISS:      56794  dtACCESS:     168982  dtHIT:      11363  dtMISS:     157619
cpu0_L1D PREFETCH  REQUESTED:   18954566  ISSUED:   17071049  CROSSED:          0  USEFUL:     305792  USELESS:     703515
cpu0_L1D AVERAGE iMISS LATENCY: 0 cycles
cpu0_L1D AVERAGE dMISS LATENCY: 34.32 cycles
cpu0_L1D AVERAGE itMISS LATENCY: 0.780164 cycles
cpu0_L1D AVERAGE dtMISS LATENCY: 2.54792 cycles
cpu0_L1D PAGE CROSSINGS (TLB HIT):         0 
cpu0_L1D PAGE CROSSINGS (TLB MISS):         0 
cpu0_L1D AVERAGE MISS LATENCY: 37.648 cycles
cpu0_L2C TOTAL       ACCESS:    7020391  HIT:    1672503  MISS:    5347888  iACCESS:    3309920  iHIT:     854112  iMISS:    2455808  dACCESS:    3504987  dHIT:     699664  dMISS:    2805323  itACCESS:      56794  itHIT:      39789  itMISS:      17005  dtACCESS:     148690  dtHIT:      78938  dtMISS:      69752
cpu0_L2C LOAD         ACCESS:    1699726  HIT:     276853  MISS:    1422873  iACCESS:     771992  iHIT:     133085  iMISS:     638907  dACCESS:     927734  dHIT:     143768  dMISS:     783966  itACCESS:          0  itHIT:          0  itMISS:          0  dtACCESS:          0  dtHIT:          0  dtMISS:          0
cpu0_L2C RFO          ACCESS:     159020  HIT:      50429  MISS:     108591  iACCESS:          0  iHIT:          0  iMISS:          0  dACCESS:     159020  dHIT:      50429  dMISS:     108591  itACCESS:          0  itHIT:          0  itMISS:          0  dtACCESS:          0  dtHIT:          0  dtMISS:          0
cpu0_L2C PREFETCH     ACCESS:    4676658  HIT:    1093236  MISS:    3583422  iACCESS:    2537928  iHIT:     721027  iMISS:    1816901  dACCESS:    2138730  dHIT:     372209  dMISS:    1766521  itACCESS:          0  itHIT:          0  itMISS:          0  dtACCESS:          0  dtHIT:          0  dtMISS:          0
cpu0_L2C WRITE        ACCESS:     279503  HIT:     133258  MISS:     146245  iACCESS:          0  iHIT:          0  iMISS:          0  dACCESS:     279503  dHIT:     133258  dMISS:     146245  itACCESS:          0  itHIT:          0  itMISS:          0  dtACCESS:          0  dtHIT:          0  dtMISS:          0
cpu0_L2C TRANSLATION  ACCESS:     205484  HIT:     118727  MISS:      86757  iACCESS:          0  iHIT:          0  iMISS:          0  dACCESS:          0  dHIT:          0  dMISS:          0  itACCESS:      56794  itHIT:      39789  itMISS:      17005  dtACCESS:     148690  dtHIT:      78938  dtMISS:      69752
cpu0_L2C PREFETCH  REQUESTED:    1388637  ISSUED:    1388637  CROSSED:          0  USEFUL:     414004  USELESS:     377901
cpu0_L2C AVERAGE iMISS LATENCY: 15.6544 cycles
cpu0_L2C AVERAGE dMISS LATENCY: 25.8557 cycles
cpu0_L2C AVERAGE itMISS LATENCY: 0.40373 cycles
cpu0_L2C AVERAGE dtMISS LATENCY: 1.37708 cycles
cpu0_L2C PAGE CROSSINGS (TLB HIT):         0 
cpu0_L2C PAGE CROSSINGS (TLB MISS):         0 
cpu0_L2C AVERAGE MISS LATENCY: 43.2908 cycles
LLC TOTAL       ACCESS:    5235724  HIT:    4385644  MISS:     850080  iACCESS:    2404249  iHIT:    2147946  iMISS:     256303  dACCESS:    2744718  dHIT:    2195101  dMISS:     549617  itACCESS:      17005  itHIT:       6341  itMISS:      10664  dtACCESS:      69752  dtHIT:      36256  dtMISS:      33496
LLC LOAD         ACCESS:    1420922  HIT:    1229994  MISS:     190928  iACCESS:     637495  iHIT:     582934  iMISS:      54561  dACCESS:     783427  dHIT:     647060  dMISS:     136367  itACCESS:          0  itHIT:          0  itMISS:          0  dtACCESS:          0  dtHIT:          0  dtMISS:          0
LLC RFO          ACCESS:     108590  HIT:      73312  MISS:      35278  iACCESS:          0  iHIT:          0  iMISS:          0  dACCESS:     108590  dHIT:      73312  dMISS:      35278  itACCESS:          0  itHIT:          0  itMISS:          0  dtACCESS:          0  dtHIT:          0  dtMISS:          0
LLC PREFETCH     ACCESS:    3478349  HIT:    2907222  MISS:     571127  iACCESS:    1766754  iHIT:    1565012  iMISS:     201742  dACCESS:    1711595  dHIT:    1342210  dMISS:     369385  itACCESS:          0  itHIT:          0  itMISS:          0  dtACCESS:          0  dtHIT:          0  dtMISS:          0
LLC WRITE        ACCESS:     141106  HIT:     132519  MISS:       8587  iACCESS:          0  iHIT:          0  iMISS:          0  dACCESS:     141106  dHIT:     132519  dMISS:       8587  itACCESS:          0  itHIT:          0  itMISS:          0  dtACCESS:          0  dtHIT:          0  dtMISS:          0
LLC TRANSLATION  ACCESS:      86757  HIT:      42597  MISS:      44160  iACCESS:          0  iHIT:          0  iMISS:          0  dACCESS:          0  dHIT:          0  dMISS:          0  itACCESS:      17005  itHIT:       6341  itMISS:      10664  dtACCESS:      69752  dtHIT:      36256  dtMISS:      33496
LLC PREFETCH  REQUESTED:          0  ISSUED:          0  CROSSED:          0  USEFUL:          0  USELESS:          0
LLC AVERAGE iMISS LATENCY: 43.8779 cycles
LLC AVERAGE dMISS LATENCY: 103.653 cycles
LLC AVERAGE itMISS LATENCY: 2.148 cycles
LLC AVERAGE dtMISS LATENCY: 7.06669 cycles
LLC PAGE CROSSINGS (TLB HIT):         0 
LLC PAGE CROSSINGS (TLB MISS):         0 
LLC AVERAGE MISS LATENCY: 156.745 cycles

PageTableWalker TOTAL       ACCESS:      88240  
PageTableWalker AVERAGE LATENCY: 4.53331 cycles
PageTableWalker TOTAL LATENCY: 400019 cycles

DRAM Statistics
Channel 0
 RQ ROW_BUFFER_HIT:     233536
  ROW_BUFFER_MISS:     607892
 AVG DBUS CONGESTED CYCLE:    3.62766
 WQ ROW_BUFFER_HIT:      15611
  ROW_BUFFER_MISS:      21088  FULL:          0

