last_page:0x200000000000000
VMEM_RES_CAP:0x100000
PAGE_SIZE:4096
LOG2_PAGE_SIZE:12
LOG2_PAGE_TABLE_SIZE:9
page_table_levels:5
WARNING: physical memory size is smaller than virtual memory size
FDiP enabled with aggresivity 16

*** ChampSim Multicore Out-of-Order Simulator ***

Warmup Instructions: 50000000
Simulation Instructions: 100000000
Number of CPUs: 1
Small page size: 4096
Large page size: 2097152

CPU 0 Bimodal branch predictor
Basic BTB sets: 1024 ways: 8 indirect buffer size: 4096 RAS size: 64
Instruction page size distrubution: 0
Loading instruction page size distribution from /home/bsc/bsc018186/scratch/itp_asplos25_AE/dump/srv426_ap.pdst
Data page size distrubution: 0
Loading data page size distribution from /home/bsc/bsc018186/scratch/itp_asplos25_AE/dump/srv426_ap.pdst
cpu0_L2C IP-based stride prefetcher
cpu0_L1D next line prefetcher
cpu0_STLB using iTP with max lru@8
cpu0_STLB using iTP with instr@0 and data@2
Init sat counter with 3 bits (max:50).
cpu0_L1I next line prefetcher
Off-chip DRAM Size: 4 GiB Channels: 1 Width: 64-bit Data Rate: 3200 MT/s
Heartbeat CPU 0 instructions: 10000001 cycles: 2501263 heartbeat IPC: 3.99799 cumulative IPC: 3.99799 (Simulation time: 0 hr 0 min 37 sec) 
Heartbeat CPU 0 instructions: 20000002 cycles: 5001858 heartbeat IPC: 3.99905 cumulative IPC: 3.99852 (Simulation time: 0 hr 1 min 16 sec) 
Heartbeat CPU 0 instructions: 30000003 cycles: 7503735 heartbeat IPC: 3.997 cumulative IPC: 3.99801 (Simulation time: 0 hr 1 min 55 sec) 
Heartbeat CPU 0 instructions: 40000000 cycles: 10008360 heartbeat IPC: 3.99262 cumulative IPC: 3.99666 (Simulation time: 0 hr 2 min 35 sec) 
Heartbeat CPU 0 instructions: 50000001 cycles: 12508574 heartbeat IPC: 3.99966 cumulative IPC: 3.99726 (Simulation time: 0 hr 3 min 15 sec) 
Warmup finished CPU 0 instructions: 50000001 cycles: 12508575 cumulative IPC: 3.99726 (Simulation time: 0 hr 3 min 15 sec) 

Warmup complete CPU 0 instructions: 50000001 cycles: 12508575 (Simulation time: 0 hr 3 min 15 sec) 

Heartbeat CPU 0 instructions: 60000000 cycles: 32665737 heartbeat IPC: 0.496102 cumulative IPC: 0.496102 (Simulation time: 0 hr 4 min 25 sec) 
Heartbeat CPU 0 instructions: 70000000 cycles: 50992741 heartbeat IPC: 0.545643 cumulative IPC: 0.519695 (Simulation time: 0 hr 5 min 33 sec) 
Heartbeat CPU 0 instructions: 80000002 cycles: 68612311 heartbeat IPC: 0.567551 cumulative IPC: 0.534724 (Simulation time: 0 hr 6 min 41 sec) 
Heartbeat CPU 0 instructions: 90000000 cycles: 86705162 heartbeat IPC: 0.552705 cumulative IPC: 0.539109 (Simulation time: 0 hr 7 min 52 sec) 
Heartbeat CPU 0 instructions: 100000002 cycles: 106220645 heartbeat IPC: 0.512414 cumulative IPC: 0.53355 (Simulation time: 0 hr 9 min 4 sec) 
*** Reached end of trace: /gpfs/projects/bsc18/MN4/bsc18/romol/ChampSim/traces/qualcomm_srv/srv426_ap.champsimtrace.xz
Heartbeat CPU 0 instructions: 110000001 cycles: 123601546 heartbeat IPC: 0.575345 cumulative IPC: 0.540089 (Simulation time: 0 hr 10 min 12 sec) 
Heartbeat CPU 0 instructions: 120000001 cycles: 141974236 heartbeat IPC: 0.544287 cumulative IPC: 0.540684 (Simulation time: 0 hr 11 min 23 sec) 
Heartbeat CPU 0 instructions: 130000000 cycles: 161984450 heartbeat IPC: 0.499745 cumulative IPC: 0.535204 (Simulation time: 0 hr 12 min 36 sec) 
Heartbeat CPU 0 instructions: 140000000 cycles: 182656178 heartbeat IPC: 0.483753 cumulative IPC: 0.528953 (Simulation time: 0 hr 13 min 50 sec) 
Heartbeat CPU 0 instructions: 150000000 cycles: 201308234 heartbeat IPC: 0.536134 cumulative IPC: 0.529662 (Simulation time: 0 hr 15 min 1 sec) 
Simulation finished CPU 0 instructions: 100000001 cycles: 188799674 cumulative IPC: 0.529662 (Simulation time: 0 hr 15 min 1 sec) 

Simulation complete CPU 0 instructions: 100000001 cycles: 188799674 (Simulation time: 0 hr 15 min 1 sec) 


ChampSim completed all CPUs

Saving instructions large page distribution to /home/bsc/bsc018186/scratch/itp_asplos25_AE/dump/srv426_ap.pdst...
Saving data large page distribution to /home/bsc/bsc018186/scratch/itp_asplos25_AE/dump/srv426_ap.pdst...
=== Simulation ===
CPU 0 runs /gpfs/projects/bsc18/MN4/bsc18/romol/ChampSim/traces/qualcomm_srv/srv426_ap.champsimtrace.xz

Region of Interest Statistics

CPU 0 cumulative IPC: 0.529662 instructions: 100000001 cycles: 188799674
CPU 0 Branch Prediction Accuracy: 81.1561% MPKI: 34.1327 Average ROB Occupancy at Mispredict: 11.5538
Branch type MPKI
BRANCH_DIRECT_JUMP: 1.088
BRANCH_INDIRECT: 16.565
BRANCH_CONDITIONAL: 11.8408
BRANCH_DIRECT_CALL: 2.01458
BRANCH_INDIRECT_CALL: 1.12873
BRANCH_RETURN: 1.49566

Instructions large pages: 0
Instructions small pages: 1248
Large page distribution for instructions: 0%

Data large pages: 0
Data small pages: 5192
Large page distribution for data: 0%

cpu0_L1I TOTAL       ACCESS:   32205740  HIT:   25107070  MISS:    7098670  iACCESS:   32205740  iHIT:   25107070  iMISS:    7098670  dACCESS:          0  dHIT:          0  dMISS:          0  itACCESS:          0  itHIT:          0  itMISS:          0  dtACCESS:          0  dtHIT:          0  dtMISS:          0
cpu0_L1I LOAD         ACCESS:    8613761  HIT:    6655598  MISS:    1958163  iACCESS:    8613761  iHIT:    6655598  iMISS:    1958163  dACCESS:          0  dHIT:          0  dMISS:          0  itACCESS:          0  itHIT:          0  itMISS:          0  dtACCESS:          0  dtHIT:          0  dtMISS:          0
cpu0_L1I RFO          ACCESS:          0  HIT:          0  MISS:          0  iACCESS:          0  iHIT:          0  iMISS:          0  dACCESS:          0  dHIT:          0  dMISS:          0  itACCESS:          0  itHIT:          0  itMISS:          0  dtACCESS:          0  dtHIT:          0  dtMISS:          0
cpu0_L1I PREFETCH     ACCESS:   23591979  HIT:   18451472  MISS:    5140507  iACCESS:   23591979  iHIT:   18451472  iMISS:    5140507  dACCESS:          0  dHIT:          0  dMISS:          0  itACCESS:          0  itHIT:          0  itMISS:          0  dtACCESS:          0  dtHIT:          0  dtMISS:          0
cpu0_L1I WRITE        ACCESS:          0  HIT:          0  MISS:          0  iACCESS:          0  iHIT:          0  iMISS:          0  dACCESS:          0  dHIT:          0  dMISS:          0  itACCESS:          0  itHIT:          0  itMISS:          0  dtACCESS:          0  dtHIT:          0  dtMISS:          0
cpu0_L1I TRANSLATION  ACCESS:          0  HIT:          0  MISS:          0  iACCESS:          0  iHIT:          0  iMISS:          0  dACCESS:          0  dHIT:          0  dMISS:          0  itACCESS:          0  itHIT:          0  itMISS:          0  dtACCESS:          0  dtHIT:          0  dtMISS:          0
cpu0_L1I PREFETCH  REQUESTED:   25370462  ISSUED:   25368659  CROSSED:          0  USEFUL:    1650450  USELESS:     562457
cpu0_L1I AVERAGE iMISS LATENCY: 20.5955 cycles
cpu0_L1I AVERAGE dMISS LATENCY: 0 cycles
cpu0_L1I AVERAGE itMISS LATENCY: 0 cycles
cpu0_L1I AVERAGE dtMISS LATENCY: 0 cycles
cpu0_L1I PAGE CROSSINGS (TLB HIT):         0 
cpu0_L1I PAGE CROSSINGS (TLB MISS):         0 
cpu0_L1I AVERAGE MISS LATENCY: 20.5955 cycles
cpu0_ITLB TOTAL       ACCESS:   27215493  HIT:   25578063  MISS:    1637430  iACCESS:   27215493  iHIT:   25578063  iMISS:    1637430  dACCESS:          0  dHIT:          0  dMISS:          0  itACCESS:          0  itHIT:          0  itMISS:          0  dtACCESS:          0  dtHIT:          0  dtMISS:          0
cpu0_ITLB LOAD         ACCESS:   27215493  HIT:   25578063  MISS:    1637430  iACCESS:   27215493  iHIT:   25578063  iMISS:    1637430  dACCESS:          0  dHIT:          0  dMISS:          0  itACCESS:          0  itHIT:          0  itMISS:          0  dtACCESS:          0  dtHIT:          0  dtMISS:          0
cpu0_ITLB RFO          ACCESS:          0  HIT:          0  MISS:          0  iACCESS:          0  iHIT:          0  iMISS:          0  dACCESS:          0  dHIT:          0  dMISS:          0  itACCESS:          0  itHIT:          0  itMISS:          0  dtACCESS:          0  dtHIT:          0  dtMISS:          0
cpu0_ITLB PREFETCH     ACCESS:          0  HIT:          0  MISS:          0  iACCESS:          0  iHIT:          0  iMISS:          0  dACCESS:          0  dHIT:          0  dMISS:          0  itACCESS:          0  itHIT:          0  itMISS:          0  dtACCESS:          0  dtHIT:          0  dtMISS:          0
cpu0_ITLB WRITE        ACCESS:          0  HIT:          0  MISS:          0  iACCESS:          0  iHIT:          0  iMISS:          0  dACCESS:          0  dHIT:          0  dMISS:          0  itACCESS:          0  itHIT:          0  itMISS:          0  dtACCESS:          0  dtHIT:          0  dtMISS:          0
cpu0_ITLB TRANSLATION  ACCESS:          0  HIT:          0  MISS:          0  iACCESS:          0  iHIT:          0  iMISS:          0  dACCESS:          0  dHIT:          0  dMISS:          0  itACCESS:          0  itHIT:          0  itMISS:          0  dtACCESS:          0  dtHIT:          0  dtMISS:          0
cpu0_ITLB PREFETCH  REQUESTED:          0  ISSUED:          0  CROSSED:          0  USEFUL:     280597  USELESS:      51594
cpu0_ITLB AVERAGE iMISS LATENCY: 2.95969 cycles
cpu0_ITLB AVERAGE dMISS LATENCY: 0 cycles
cpu0_ITLB AVERAGE itMISS LATENCY: 0 cycles
cpu0_ITLB AVERAGE dtMISS LATENCY: 0 cycles
cpu0_ITLB PAGE CROSSINGS (TLB HIT):         0 
cpu0_ITLB PAGE CROSSINGS (TLB MISS):         0 
cpu0_ITLB AVERAGE MISS LATENCY: 2.95969 cycles
cpu0_DTLB TOTAL       ACCESS:   29344392  HIT:   27536681  MISS:    1807711  iACCESS:          0  iHIT:          0  iMISS:          0  dACCESS:   29344392  dHIT:   27536681  dMISS:    1807711  itACCESS:          0  itHIT:          0  itMISS:          0  dtACCESS:          0  dtHIT:          0  dtMISS:          0
cpu0_DTLB LOAD         ACCESS:   29344392  HIT:   27536681  MISS:    1807711  iACCESS:          0  iHIT:          0  iMISS:          0  dACCESS:   29344392  dHIT:   27536681  dMISS:    1807711  itACCESS:          0  itHIT:          0  itMISS:          0  dtACCESS:          0  dtHIT:          0  dtMISS:          0
cpu0_DTLB RFO          ACCESS:          0  HIT:          0  MISS:          0  iACCESS:          0  iHIT:          0  iMISS:          0  dACCESS:          0  dHIT:          0  dMISS:          0  itACCESS:          0  itHIT:          0  itMISS:          0  dtACCESS:          0  dtHIT:          0  dtMISS:          0
cpu0_DTLB PREFETCH     ACCESS:          0  HIT:          0  MISS:          0  iACCESS:          0  iHIT:          0  iMISS:          0  dACCESS:          0  dHIT:          0  dMISS:          0  itACCESS:          0  itHIT:          0  itMISS:          0  dtACCESS:          0  dtHIT:          0  dtMISS:          0
cpu0_DTLB WRITE        ACCESS:          0  HIT:          0  MISS:          0  iACCESS:          0  iHIT:          0  iMISS:          0  dACCESS:          0  dHIT:          0  dMISS:          0  itACCESS:          0  itHIT:          0  itMISS:          0  dtACCESS:          0  dtHIT:          0  dtMISS:          0
cpu0_DTLB TRANSLATION  ACCESS:          0  HIT:          0  MISS:          0  iACCESS:          0  iHIT:          0  iMISS:          0  dACCESS:          0  dHIT:          0  dMISS:          0  itACCESS:          0  itHIT:          0  itMISS:          0  dtACCESS:          0  dtHIT:          0  dtMISS:          0
cpu0_DTLB PREFETCH  REQUESTED:          0  ISSUED:          0  CROSSED:          0  USEFUL:          0  USELESS:          0
cpu0_DTLB AVERAGE iMISS LATENCY: 0 cycles
cpu0_DTLB AVERAGE dMISS LATENCY: 15.1055 cycles
cpu0_DTLB AVERAGE itMISS LATENCY: 0 cycles
cpu0_DTLB AVERAGE dtMISS LATENCY: 0 cycles
cpu0_DTLB PAGE CROSSINGS (TLB HIT):         0 
cpu0_DTLB PAGE CROSSINGS (TLB MISS):         0 
cpu0_DTLB AVERAGE MISS LATENCY: 15.1055 cycles
cpu0_STLB TOTAL       ACCESS:    1409118  HIT:    1215724  MISS:     193394  iACCESS:     332205  iHIT:     309482  iMISS:      22723  dACCESS:    1076913  dHIT:     906242  dMISS:     170671  itACCESS:          0  itHIT:          0  itMISS:          0  dtACCESS:          0  dtHIT:          0  dtMISS:          0
cpu0_STLB LOAD         ACCESS:    1409118  HIT:    1215724  MISS:     193394  iACCESS:     332205  iHIT:     309482  iMISS:      22723  dACCESS:    1076913  dHIT:     906242  dMISS:     170671  itACCESS:          0  itHIT:          0  itMISS:          0  dtACCESS:          0  dtHIT:          0  dtMISS:          0
cpu0_STLB RFO          ACCESS:          0  HIT:          0  MISS:          0  iACCESS:          0  iHIT:          0  iMISS:          0  dACCESS:          0  dHIT:          0  dMISS:          0  itACCESS:          0  itHIT:          0  itMISS:          0  dtACCESS:          0  dtHIT:          0  dtMISS:          0
cpu0_STLB PREFETCH     ACCESS:          0  HIT:          0  MISS:          0  iACCESS:          0  iHIT:          0  iMISS:          0  dACCESS:          0  dHIT:          0  dMISS:          0  itACCESS:          0  itHIT:          0  itMISS:          0  dtACCESS:          0  dtHIT:          0  dtMISS:          0
cpu0_STLB WRITE        ACCESS:          0  HIT:          0  MISS:          0  iACCESS:          0  iHIT:          0  iMISS:          0  dACCESS:          0  dHIT:          0  dMISS:          0  itACCESS:          0  itHIT:          0  itMISS:          0  dtACCESS:          0  dtHIT:          0  dtMISS:          0
cpu0_STLB TRANSLATION  ACCESS:          0  HIT:          0  MISS:          0  iACCESS:          0  iHIT:          0  iMISS:          0  dACCESS:          0  dHIT:          0  dMISS:          0  itACCESS:          0  itHIT:          0  itMISS:          0  dtACCESS:          0  dtHIT:          0  dtMISS:          0
cpu0_STLB PREFETCH  REQUESTED:          0  ISSUED:          0  CROSSED:          0  USEFUL:          0  USELESS:          0
cpu0_STLB AVERAGE iMISS LATENCY: 11.6423 cycles
cpu0_STLB AVERAGE dMISS LATENCY: 96.502 cycles
cpu0_STLB AVERAGE itMISS LATENCY: 0 cycles
cpu0_STLB AVERAGE dtMISS LATENCY: 0 cycles
cpu0_STLB PAGE CROSSINGS (TLB HIT):         0 
cpu0_STLB PAGE CROSSINGS (TLB MISS):         0 
cpu0_STLB AVERAGE MISS LATENCY: 108.145 cycles
cpu0_L1D TOTAL       ACCESS:   45746234  HIT:   39813643  MISS:    5932591  iACCESS:          0  iHIT:          0  iMISS:          0  dACCESS:   45446273  dHIT:   39796085  dMISS:    5650188  itACCESS:      30414  itHIT:       2285  itMISS:      28129  dtACCESS:     269547  dtHIT:      15273  dtMISS:     254274
cpu0_L1D LOAD         ACCESS:   21911686  HIT:   19289309  MISS:    2622377  iACCESS:          0  iHIT:          0  iMISS:          0  dACCESS:   21911686  dHIT:   19289309  dMISS:    2622377  itACCESS:          0  itHIT:          0  itMISS:          0  dtACCESS:          0  dtHIT:          0  dtMISS:          0
cpu0_L1D RFO          ACCESS:          0  HIT:          0  MISS:          0  iACCESS:          0  iHIT:          0  iMISS:          0  dACCESS:          0  dHIT:          0  dMISS:          0  itACCESS:          0  itHIT:          0  itMISS:          0  dtACCESS:          0  dtHIT:          0  dtMISS:          0
cpu0_L1D PREFETCH     ACCESS:   13860547  HIT:   11522984  MISS:    2337563  iACCESS:          0  iHIT:          0  iMISS:          0  dACCESS:   13860547  dHIT:   11522984  dMISS:    2337563  itACCESS:          0  itHIT:          0  itMISS:          0  dtACCESS:          0  dtHIT:          0  dtMISS:          0
cpu0_L1D WRITE        ACCESS:    9674040  HIT:    8983792  MISS:     690248  iACCESS:          0  iHIT:          0  iMISS:          0  dACCESS:    9674040  dHIT:    8983792  dMISS:     690248  itACCESS:          0  itHIT:          0  itMISS:          0  dtACCESS:          0  dtHIT:          0  dtMISS:          0
cpu0_L1D TRANSLATION  ACCESS:     299961  HIT:      17558  MISS:     282403  iACCESS:          0  iHIT:          0  iMISS:          0  dACCESS:          0  dHIT:          0  dMISS:          0  itACCESS:      30414  itHIT:       2285  itMISS:      28129  dtACCESS:     269547  dtHIT:      15273  dtMISS:     254274
cpu0_L1D PREFETCH  REQUESTED:   21911686  ISSUED:   18516830  CROSSED:          0  USEFUL:     317220  USELESS:     694387
cpu0_L1D AVERAGE iMISS LATENCY: 0 cycles
cpu0_L1D AVERAGE dMISS LATENCY: 36.1584 cycles
cpu0_L1D AVERAGE itMISS LATENCY: 0.337006 cycles
cpu0_L1D AVERAGE dtMISS LATENCY: 2.75259 cycles
cpu0_L1D PAGE CROSSINGS (TLB HIT):         0 
cpu0_L1D PAGE CROSSINGS (TLB MISS):         0 
cpu0_L1D AVERAGE MISS LATENCY: 39.248 cycles
cpu0_L2C TOTAL       ACCESS:    6733083  HIT:    1451074  MISS:    5282009  iACCESS:    2841022  iHIT:     685622  iMISS:    2155400  dACCESS:    3657312  dHIT:     644878  dMISS:    3012434  itACCESS:      23502  itHIT:      11739  itMISS:      11763  dtACCESS:     211247  dtHIT:     108835  dtMISS:     102412
cpu0_L2C LOAD         ACCESS:    1794159  HIT:     288919  MISS:    1505240  iACCESS:     657705  iHIT:     114526  iMISS:     543179  dACCESS:    1136454  dHIT:     174393  dMISS:     962061  itACCESS:          0  itHIT:          0  itMISS:          0  dtACCESS:          0  dtHIT:          0  dtMISS:          0
cpu0_L2C RFO          ACCESS:     171451  HIT:      37789  MISS:     133662  iACCESS:          0  iHIT:          0  iMISS:          0  dACCESS:     171451  dHIT:      37789  dMISS:     133662  itACCESS:          0  itHIT:          0  itMISS:          0  dtACCESS:          0  dtHIT:          0  dtMISS:          0
cpu0_L2C PREFETCH     ACCESS:    4249893  HIT:     879273  MISS:    3370620  iACCESS:    2183317  iHIT:     571096  iMISS:    1612221  dACCESS:    2066576  dHIT:     308177  dMISS:    1758399  itACCESS:          0  itHIT:          0  itMISS:          0  dtACCESS:          0  dtHIT:          0  dtMISS:          0
cpu0_L2C WRITE        ACCESS:     282831  HIT:     124519  MISS:     158312  iACCESS:          0  iHIT:          0  iMISS:          0  dACCESS:     282831  dHIT:     124519  dMISS:     158312  itACCESS:          0  itHIT:          0  itMISS:          0  dtACCESS:          0  dtHIT:          0  dtMISS:          0
cpu0_L2C TRANSLATION  ACCESS:     234749  HIT:     120574  MISS:     114175  iACCESS:          0  iHIT:          0  iMISS:          0  dACCESS:          0  dHIT:          0  dMISS:          0  itACCESS:      23502  itHIT:      11739  itMISS:      11763  dtACCESS:     211247  dtHIT:     108835  dtMISS:     102412
cpu0_L2C PREFETCH  REQUESTED:    1259445  ISSUED:    1259445  CROSSED:          0  USEFUL:     336451  USELESS:     369839
cpu0_L2C AVERAGE iMISS LATENCY: 22.9125 cycles
cpu0_L2C AVERAGE dMISS LATENCY: 48.2071 cycles
cpu0_L2C AVERAGE itMISS LATENCY: 0.336106 cycles
cpu0_L2C AVERAGE dtMISS LATENCY: 2.71055 cycles
cpu0_L2C PAGE CROSSINGS (TLB HIT):         0 
cpu0_L2C PAGE CROSSINGS (TLB MISS):         0 
cpu0_L2C AVERAGE MISS LATENCY: 74.1662 cycles
LLC TOTAL       ACCESS:    5134182  HIT:    3360546  MISS:    1773636  iACCESS:    2088560  iHIT:    1542445  iMISS:     546115  dACCESS:    2931447  dHIT:    1774691  dMISS:    1156756  itACCESS:      11763  itHIT:       3079  itMISS:       8684  dtACCESS:     102412  dtHIT:      40331  dtMISS:      62081
LLC LOAD         ACCESS:    1498396  HIT:    1046162  MISS:     452234  iACCESS:     541970  iHIT:     429801  iMISS:     112169  dACCESS:     956426  dHIT:     616361  dMISS:     340065  itACCESS:          0  itHIT:          0  itMISS:          0  dtACCESS:          0  dtHIT:          0  dtMISS:          0
LLC RFO          ACCESS:     133653  HIT:      60463  MISS:      73190  iACCESS:          0  iHIT:          0  iMISS:          0  dACCESS:     133653  dHIT:      60463  dMISS:      73190  itACCESS:          0  itHIT:          0  itMISS:          0  dtACCESS:          0  dtHIT:          0  dtMISS:          0
LLC PREFETCH     ACCESS:    3213326  HIT:    2047786  MISS:    1165540  iACCESS:    1546590  iHIT:    1112644  iMISS:     433946  dACCESS:    1666736  dHIT:     935142  dMISS:     731594  itACCESS:          0  itHIT:          0  itMISS:          0  dtACCESS:          0  dtHIT:          0  dtMISS:          0
LLC WRITE        ACCESS:     174632  HIT:     162725  MISS:      11907  iACCESS:          0  iHIT:          0  iMISS:          0  dACCESS:     174632  dHIT:     162725  dMISS:      11907  itACCESS:          0  itHIT:          0  itMISS:          0  dtACCESS:          0  dtHIT:          0  dtMISS:          0
LLC TRANSLATION  ACCESS:     114175  HIT:      43410  MISS:      70765  iACCESS:          0  iHIT:          0  iMISS:          0  dACCESS:          0  dHIT:          0  dMISS:          0  itACCESS:      11763  itHIT:       3079  itMISS:       8684  dtACCESS:     102412  dtHIT:      40331  dtMISS:      62081
LLC PREFETCH  REQUESTED:          0  ISSUED:          0  CROSSED:          0  USEFUL:          0  USELESS:          0
LLC AVERAGE iMISS LATENCY: 45.3979 cycles
LLC AVERAGE dMISS LATENCY: 114.613 cycles
LLC AVERAGE itMISS LATENCY: 0.870439 cycles
LLC AVERAGE dtMISS LATENCY: 6.94232 cycles
LLC PAGE CROSSINGS (TLB HIT):         0 
LLC PAGE CROSSINGS (TLB MISS):         0 
LLC AVERAGE MISS LATENCY: 167.824 cycles

PageTableWalker TOTAL       ACCESS:      96659  
PageTableWalker AVERAGE LATENCY: 4.65022 cycles
PageTableWalker TOTAL LATENCY: 449485 cycles

DRAM Statistics
Channel 0
 RQ ROW_BUFFER_HIT:     515567
  ROW_BUFFER_MISS:    1231866
 AVG DBUS CONGESTED CYCLE:    3.65881
 WQ ROW_BUFFER_HIT:      37793
  ROW_BUFFER_MISS:      39959  FULL:          0

