last_page:0x200000000000000
VMEM_RES_CAP:0x100000
PAGE_SIZE:4096
LOG2_PAGE_SIZE:12
LOG2_PAGE_TABLE_SIZE:9
page_table_levels:5
WARNING: physical memory size is smaller than virtual memory size
FDiP enabled with aggresivity 16

*** ChampSim Multicore Out-of-Order Simulator ***

Warmup Instructions: 50000000
Simulation Instructions: 100000000
Number of CPUs: 1
Small page size: 4096
Large page size: 2097152

CPU 0 Bimodal branch predictor
Basic BTB sets: 1024 ways: 8 indirect buffer size: 4096 RAS size: 64
Instruction page size distrubution: 0
Loading instruction page size distribution from /home/bsc/bsc018186/scratch/itp_asplos25_AE/dump/srv442_ap.pdst
Data page size distrubution: 0
Loading data page size distribution from /home/bsc/bsc018186/scratch/itp_asplos25_AE/dump/srv442_ap.pdst
cpu0_L2C IP-based stride prefetcher
cpu0_L1D next line prefetcher
cpu0_L1I next line prefetcher
Off-chip DRAM Size: 4 GiB Channels: 1 Width: 64-bit Data Rate: 3200 MT/s
Heartbeat CPU 0 instructions: 10000002 cycles: 2500162 heartbeat IPC: 3.99975 cumulative IPC: 3.99975 (Simulation time: 0 hr 0 min 35 sec) 
Heartbeat CPU 0 instructions: 20000000 cycles: 5000197 heartbeat IPC: 3.99995 cumulative IPC: 3.99985 (Simulation time: 0 hr 1 min 12 sec) 
Heartbeat CPU 0 instructions: 30000003 cycles: 7500242 heartbeat IPC: 3.99993 cumulative IPC: 3.99988 (Simulation time: 0 hr 1 min 50 sec) 
Heartbeat CPU 0 instructions: 40000003 cycles: 10000298 heartbeat IPC: 3.99992 cumulative IPC: 3.99989 (Simulation time: 0 hr 2 min 28 sec) 
Heartbeat CPU 0 instructions: 50000000 cycles: 12500305 heartbeat IPC: 3.99999 cumulative IPC: 3.99991 (Simulation time: 0 hr 3 min 6 sec) 
Warmup finished CPU 0 instructions: 50000000 cycles: 12500306 cumulative IPC: 3.99991 (Simulation time: 0 hr 3 min 6 sec) 

Warmup complete CPU 0 instructions: 50000000 cycles: 12500306 (Simulation time: 0 hr 3 min 6 sec) 

Heartbeat CPU 0 instructions: 60000002 cycles: 31425018 heartbeat IPC: 0.52841 cumulative IPC: 0.52841 (Simulation time: 0 hr 4 min 12 sec) 
Heartbeat CPU 0 instructions: 70000004 cycles: 50349548 heartbeat IPC: 0.528415 cumulative IPC: 0.528413 (Simulation time: 0 hr 5 min 18 sec) 
Heartbeat CPU 0 instructions: 80000001 cycles: 68582124 heartbeat IPC: 0.548469 cumulative IPC: 0.534933 (Simulation time: 0 hr 6 min 24 sec) 
Heartbeat CPU 0 instructions: 90000000 cycles: 86477989 heartbeat IPC: 0.558789 cumulative IPC: 0.540704 (Simulation time: 0 hr 7 min 29 sec) 
Heartbeat CPU 0 instructions: 100000000 cycles: 104435313 heartbeat IPC: 0.556876 cumulative IPC: 0.543863 (Simulation time: 0 hr 8 min 34 sec) 
*** Reached end of trace: /gpfs/projects/bsc18/MN4/bsc18/romol/ChampSim/traces/qualcomm_srv/srv442_ap.champsimtrace.xz
Heartbeat CPU 0 instructions: 110000003 cycles: 122645976 heartbeat IPC: 0.549129 cumulative IPC: 0.544734 (Simulation time: 0 hr 9 min 40 sec) 
Heartbeat CPU 0 instructions: 120000004 cycles: 140595797 heartbeat IPC: 0.557109 cumulative IPC: 0.546468 (Simulation time: 0 hr 10 min 45 sec) 
Heartbeat CPU 0 instructions: 130000004 cycles: 158880663 heartbeat IPC: 0.546901 cumulative IPC: 0.546522 (Simulation time: 0 hr 11 min 51 sec) 
Heartbeat CPU 0 instructions: 140000003 cycles: 177690327 heartbeat IPC: 0.531642 cumulative IPC: 0.544828 (Simulation time: 0 hr 12 min 58 sec) 
Heartbeat CPU 0 instructions: 150000000 cycles: 195195439 heartbeat IPC: 0.571262 cumulative IPC: 0.54736 (Simulation time: 0 hr 14 min 3 sec) 
Simulation finished CPU 0 instructions: 100000000 cycles: 182695134 cumulative IPC: 0.54736 (Simulation time: 0 hr 14 min 3 sec) 

Simulation complete CPU 0 instructions: 100000000 cycles: 182695134 (Simulation time: 0 hr 14 min 3 sec) 


ChampSim completed all CPUs

Saving instructions large page distribution to /home/bsc/bsc018186/scratch/itp_asplos25_AE/dump/srv442_ap.pdst...
Saving data large page distribution to /home/bsc/bsc018186/scratch/itp_asplos25_AE/dump/srv442_ap.pdst...
=== Simulation ===
CPU 0 runs /gpfs/projects/bsc18/MN4/bsc18/romol/ChampSim/traces/qualcomm_srv/srv442_ap.champsimtrace.xz

Region of Interest Statistics

CPU 0 cumulative IPC: 0.54736 instructions: 100000000 cycles: 182695134
CPU 0 Branch Prediction Accuracy: 79.7214% MPKI: 36.634 Average ROB Occupancy at Mispredict: 10.1431
Branch type MPKI
BRANCH_DIRECT_JUMP: 1.39275
BRANCH_INDIRECT: 18.3231
BRANCH_CONDITIONAL: 11.8127
BRANCH_DIRECT_CALL: 2.62396
BRANCH_INDIRECT_CALL: 0.679551
BRANCH_RETURN: 1.80209

Instructions large pages: 0
Instructions small pages: 1142
Large page distribution for instructions: 0%

Data large pages: 0
Data small pages: 5076
Large page distribution for data: 0%

cpu0_L1I TOTAL       ACCESS:   36343584  HIT:   27852867  MISS:    8490717  iACCESS:   36343584  iHIT:   27852867  iMISS:    8490717  dACCESS:          0  dHIT:          0  dMISS:          0  itACCESS:          0  itHIT:          0  itMISS:          0  dtACCESS:          0  dtHIT:          0  dtMISS:          0
cpu0_L1I LOAD         ACCESS:   10573892  HIT:    8253181  MISS:    2320711  iACCESS:   10573892  iHIT:    8253181  iMISS:    2320711  dACCESS:          0  dHIT:          0  dMISS:          0  itACCESS:          0  itHIT:          0  itMISS:          0  dtACCESS:          0  dtHIT:          0  dtMISS:          0
cpu0_L1I RFO          ACCESS:          0  HIT:          0  MISS:          0  iACCESS:          0  iHIT:          0  iMISS:          0  dACCESS:          0  dHIT:          0  dMISS:          0  itACCESS:          0  itHIT:          0  itMISS:          0  dtACCESS:          0  dtHIT:          0  dtMISS:          0
cpu0_L1I PREFETCH     ACCESS:   25769692  HIT:   19599686  MISS:    6170006  iACCESS:   25769692  iHIT:   19599686  iMISS:    6170006  dACCESS:          0  dHIT:          0  dMISS:          0  itACCESS:          0  itHIT:          0  itMISS:          0  dtACCESS:          0  dtHIT:          0  dtMISS:          0
cpu0_L1I WRITE        ACCESS:          0  HIT:          0  MISS:          0  iACCESS:          0  iHIT:          0  iMISS:          0  dACCESS:          0  dHIT:          0  dMISS:          0  itACCESS:          0  itHIT:          0  itMISS:          0  dtACCESS:          0  dtHIT:          0  dtMISS:          0
cpu0_L1I TRANSLATION  ACCESS:          0  HIT:          0  MISS:          0  iACCESS:          0  iHIT:          0  iMISS:          0  dACCESS:          0  dHIT:          0  dMISS:          0  itACCESS:          0  itHIT:          0  itMISS:          0  dtACCESS:          0  dtHIT:          0  dtMISS:          0
cpu0_L1I PREFETCH  REQUESTED:   28096066  ISSUED:   28094338  CROSSED:          0  USEFUL:    2039153  USELESS:     665867
cpu0_L1I AVERAGE iMISS LATENCY: 18.1277 cycles
cpu0_L1I AVERAGE dMISS LATENCY: 0 cycles
cpu0_L1I AVERAGE itMISS LATENCY: 0 cycles
cpu0_L1I AVERAGE dtMISS LATENCY: 0 cycles
cpu0_L1I PAGE CROSSINGS (TLB HIT):         0 
cpu0_L1I PAGE CROSSINGS (TLB MISS):         0 
cpu0_L1I AVERAGE MISS LATENCY: 18.1277 cycles
cpu0_ITLB TOTAL       ACCESS:   30384192  HIT:   28416492  MISS:    1967700  iACCESS:   30384192  iHIT:   28416492  iMISS:    1967700  dACCESS:          0  dHIT:          0  dMISS:          0  itACCESS:          0  itHIT:          0  itMISS:          0  dtACCESS:          0  dtHIT:          0  dtMISS:          0
cpu0_ITLB LOAD         ACCESS:   30384192  HIT:   28416492  MISS:    1967700  iACCESS:   30384192  iHIT:   28416492  iMISS:    1967700  dACCESS:          0  dHIT:          0  dMISS:          0  itACCESS:          0  itHIT:          0  itMISS:          0  dtACCESS:          0  dtHIT:          0  dtMISS:          0
cpu0_ITLB RFO          ACCESS:          0  HIT:          0  MISS:          0  iACCESS:          0  iHIT:          0  iMISS:          0  dACCESS:          0  dHIT:          0  dMISS:          0  itACCESS:          0  itHIT:          0  itMISS:          0  dtACCESS:          0  dtHIT:          0  dtMISS:          0
cpu0_ITLB PREFETCH     ACCESS:          0  HIT:          0  MISS:          0  iACCESS:          0  iHIT:          0  iMISS:          0  dACCESS:          0  dHIT:          0  dMISS:          0  itACCESS:          0  itHIT:          0  itMISS:          0  dtACCESS:          0  dtHIT:          0  dtMISS:          0
cpu0_ITLB WRITE        ACCESS:          0  HIT:          0  MISS:          0  iACCESS:          0  iHIT:          0  iMISS:          0  dACCESS:          0  dHIT:          0  dMISS:          0  itACCESS:          0  itHIT:          0  itMISS:          0  dtACCESS:          0  dtHIT:          0  dtMISS:          0
cpu0_ITLB TRANSLATION  ACCESS:          0  HIT:          0  MISS:          0  iACCESS:          0  iHIT:          0  iMISS:          0  dACCESS:          0  dHIT:          0  dMISS:          0  itACCESS:          0  itHIT:          0  itMISS:          0  dtACCESS:          0  dtHIT:          0  dtMISS:          0
cpu0_ITLB PREFETCH  REQUESTED:          0  ISSUED:          0  CROSSED:          0  USEFUL:     333577  USELESS:      67266
cpu0_ITLB AVERAGE iMISS LATENCY: 4.13864 cycles
cpu0_ITLB AVERAGE dMISS LATENCY: 0 cycles
cpu0_ITLB AVERAGE itMISS LATENCY: 0 cycles
cpu0_ITLB AVERAGE dtMISS LATENCY: 0 cycles
cpu0_ITLB PAGE CROSSINGS (TLB HIT):         0 
cpu0_ITLB PAGE CROSSINGS (TLB MISS):         0 
cpu0_ITLB AVERAGE MISS LATENCY: 4.13864 cycles
cpu0_DTLB TOTAL       ACCESS:   27987567  HIT:   26029882  MISS:    1957685  iACCESS:          0  iHIT:          0  iMISS:          0  dACCESS:   27987567  dHIT:   26029882  dMISS:    1957685  itACCESS:          0  itHIT:          0  itMISS:          0  dtACCESS:          0  dtHIT:          0  dtMISS:          0
cpu0_DTLB LOAD         ACCESS:   27987567  HIT:   26029882  MISS:    1957685  iACCESS:          0  iHIT:          0  iMISS:          0  dACCESS:   27987567  dHIT:   26029882  dMISS:    1957685  itACCESS:          0  itHIT:          0  itMISS:          0  dtACCESS:          0  dtHIT:          0  dtMISS:          0
cpu0_DTLB RFO          ACCESS:          0  HIT:          0  MISS:          0  iACCESS:          0  iHIT:          0  iMISS:          0  dACCESS:          0  dHIT:          0  dMISS:          0  itACCESS:          0  itHIT:          0  itMISS:          0  dtACCESS:          0  dtHIT:          0  dtMISS:          0
cpu0_DTLB PREFETCH     ACCESS:          0  HIT:          0  MISS:          0  iACCESS:          0  iHIT:          0  iMISS:          0  dACCESS:          0  dHIT:          0  dMISS:          0  itACCESS:          0  itHIT:          0  itMISS:          0  dtACCESS:          0  dtHIT:          0  dtMISS:          0
cpu0_DTLB WRITE        ACCESS:          0  HIT:          0  MISS:          0  iACCESS:          0  iHIT:          0  iMISS:          0  dACCESS:          0  dHIT:          0  dMISS:          0  itACCESS:          0  itHIT:          0  itMISS:          0  dtACCESS:          0  dtHIT:          0  dtMISS:          0
cpu0_DTLB TRANSLATION  ACCESS:          0  HIT:          0  MISS:          0  iACCESS:          0  iHIT:          0  iMISS:          0  dACCESS:          0  dHIT:          0  dMISS:          0  itACCESS:          0  itHIT:          0  itMISS:          0  dtACCESS:          0  dtHIT:          0  dtMISS:          0
cpu0_DTLB PREFETCH  REQUESTED:          0  ISSUED:          0  CROSSED:          0  USEFUL:          0  USELESS:          0
cpu0_DTLB AVERAGE iMISS LATENCY: 0 cycles
cpu0_DTLB AVERAGE dMISS LATENCY: 11.7085 cycles
cpu0_DTLB AVERAGE itMISS LATENCY: 0 cycles
cpu0_DTLB AVERAGE dtMISS LATENCY: 0 cycles
cpu0_DTLB PAGE CROSSINGS (TLB HIT):         0 
cpu0_DTLB PAGE CROSSINGS (TLB MISS):         0 
cpu0_DTLB AVERAGE MISS LATENCY: 11.7085 cycles
cpu0_STLB TOTAL       ACCESS:    1635585  HIT:    1402113  MISS:     233472  iACCESS:     400850  iHIT:     311341  iMISS:      89509  dACCESS:    1234735  dHIT:    1090772  dMISS:     143963  itACCESS:          0  itHIT:          0  itMISS:          0  dtACCESS:          0  dtHIT:          0  dtMISS:          0
cpu0_STLB LOAD         ACCESS:    1635585  HIT:    1402113  MISS:     233472  iACCESS:     400850  iHIT:     311341  iMISS:      89509  dACCESS:    1234735  dHIT:    1090772  dMISS:     143963  itACCESS:          0  itHIT:          0  itMISS:          0  dtACCESS:          0  dtHIT:          0  dtMISS:          0
cpu0_STLB RFO          ACCESS:          0  HIT:          0  MISS:          0  iACCESS:          0  iHIT:          0  iMISS:          0  dACCESS:          0  dHIT:          0  dMISS:          0  itACCESS:          0  itHIT:          0  itMISS:          0  dtACCESS:          0  dtHIT:          0  dtMISS:          0
cpu0_STLB PREFETCH     ACCESS:          0  HIT:          0  MISS:          0  iACCESS:          0  iHIT:          0  iMISS:          0  dACCESS:          0  dHIT:          0  dMISS:          0  itACCESS:          0  itHIT:          0  itMISS:          0  dtACCESS:          0  dtHIT:          0  dtMISS:          0
cpu0_STLB WRITE        ACCESS:          0  HIT:          0  MISS:          0  iACCESS:          0  iHIT:          0  iMISS:          0  dACCESS:          0  dHIT:          0  dMISS:          0  itACCESS:          0  itHIT:          0  itMISS:          0  dtACCESS:          0  dtHIT:          0  dtMISS:          0
cpu0_STLB TRANSLATION  ACCESS:          0  HIT:          0  MISS:          0  iACCESS:          0  iHIT:          0  iMISS:          0  dACCESS:          0  dHIT:          0  dMISS:          0  itACCESS:          0  itHIT:          0  itMISS:          0  dtACCESS:          0  dtHIT:          0  dtMISS:          0
cpu0_STLB PREFETCH  REQUESTED:          0  ISSUED:          0  CROSSED:          0  USEFUL:          0  USELESS:          0
cpu0_STLB AVERAGE iMISS LATENCY: 21.1993 cycles
cpu0_STLB AVERAGE dMISS LATENCY: 55.9864 cycles
cpu0_STLB AVERAGE itMISS LATENCY: 0 cycles
cpu0_STLB AVERAGE dtMISS LATENCY: 0 cycles
cpu0_STLB PAGE CROSSINGS (TLB HIT):         0 
cpu0_STLB PAGE CROSSINGS (TLB MISS):         0 
cpu0_STLB AVERAGE MISS LATENCY: 77.1856 cycles
cpu0_L1D TOTAL       ACCESS:   42696966  HIT:   38553353  MISS:    4143613  iACCESS:          0  iHIT:          0  iMISS:          0  dACCESS:   42406223  dHIT:   38529167  dMISS:    3877056  itACCESS:      95550  itHIT:      12930  itMISS:      82620  dtACCESS:     195193  dtHIT:      11256  dtMISS:     183937
cpu0_L1D LOAD         ACCESS:   19383292  HIT:   17611945  MISS:    1771347  iACCESS:          0  iHIT:          0  iMISS:          0  dACCESS:   19383292  dHIT:   17611945  dMISS:    1771347  itACCESS:          0  itHIT:          0  itMISS:          0  dtACCESS:          0  dtHIT:          0  dtMISS:          0
cpu0_L1D RFO          ACCESS:          0  HIT:          0  MISS:          0  iACCESS:          0  iHIT:          0  iMISS:          0  dACCESS:          0  dHIT:          0  dMISS:          0  itACCESS:          0  itHIT:          0  itMISS:          0  dtACCESS:          0  dtHIT:          0  dtMISS:          0
cpu0_L1D PREFETCH     ACCESS:   12870639  HIT:   11219633  MISS:    1651006  iACCESS:          0  iHIT:          0  iMISS:          0  dACCESS:   12870639  dHIT:   11219633  dMISS:    1651006  itACCESS:          0  itHIT:          0  itMISS:          0  dtACCESS:          0  dtHIT:          0  dtMISS:          0
cpu0_L1D WRITE        ACCESS:   10152292  HIT:    9697589  MISS:     454703  iACCESS:          0  iHIT:          0  iMISS:          0  dACCESS:   10152292  dHIT:    9697589  dMISS:     454703  itACCESS:          0  itHIT:          0  itMISS:          0  dtACCESS:          0  dtHIT:          0  dtMISS:          0
cpu0_L1D TRANSLATION  ACCESS:     290743  HIT:      24186  MISS:     266557  iACCESS:          0  iHIT:          0  iMISS:          0  dACCESS:          0  dHIT:          0  dMISS:          0  itACCESS:      95550  itHIT:      12930  itMISS:      82620  dtACCESS:     195193  dtHIT:      11256  dtMISS:     183937
cpu0_L1D PREFETCH  REQUESTED:   19383292  ISSUED:   17363929  CROSSED:          0  USEFUL:     314043  USELESS:     715347
cpu0_L1D AVERAGE iMISS LATENCY: 0 cycles
cpu0_L1D AVERAGE dMISS LATENCY: 38.2059 cycles
cpu0_L1D AVERAGE itMISS LATENCY: 1.00561 cycles
cpu0_L1D AVERAGE dtMISS LATENCY: 2.6695 cycles
cpu0_L1D PAGE CROSSINGS (TLB HIT):         0 
cpu0_L1D PAGE CROSSINGS (TLB MISS):         0 
cpu0_L1D AVERAGE MISS LATENCY: 41.881 cycles
cpu0_L2C TOTAL       ACCESS:    7440615  HIT:    1691735  MISS:    5748880  iACCESS:    3452082  iHIT:     874312  iMISS:    2577770  dACCESS:    3725172  dHIT:     656730  dMISS:    3068442  itACCESS:      82620  itHIT:      57805  itMISS:      24815  dtACCESS:     180741  dtHIT:     102888  dtMISS:      77853
cpu0_L2C LOAD         ACCESS:    1750055  HIT:     264092  MISS:    1485963  iACCESS:     784557  iHIT:     137765  iMISS:     646792  dACCESS:     965498  dHIT:     126327  dMISS:     839171  itACCESS:          0  itHIT:          0  itMISS:          0  dtACCESS:          0  dtHIT:          0  dtMISS:          0
cpu0_L2C RFO          ACCESS:     163391  HIT:      41577  MISS:     121814  iACCESS:          0  iHIT:          0  iMISS:          0  dACCESS:     163391  dHIT:      41577  dMISS:     121814  itACCESS:          0  itHIT:          0  itMISS:          0  dtACCESS:          0  dtHIT:          0  dtMISS:          0
cpu0_L2C PREFETCH     ACCESS:    4987369  HIT:    1107558  MISS:    3879811  iACCESS:    2667525  iHIT:     736547  iMISS:    1930978  dACCESS:    2319844  dHIT:     371011  dMISS:    1948833  itACCESS:          0  itHIT:          0  itMISS:          0  dtACCESS:          0  dtHIT:          0  dtMISS:          0
cpu0_L2C WRITE        ACCESS:     276439  HIT:     117815  MISS:     158624  iACCESS:          0  iHIT:          0  iMISS:          0  dACCESS:     276439  dHIT:     117815  dMISS:     158624  itACCESS:          0  itHIT:          0  itMISS:          0  dtACCESS:          0  dtHIT:          0  dtMISS:          0
cpu0_L2C TRANSLATION  ACCESS:     263361  HIT:     160693  MISS:     102668  iACCESS:          0  iHIT:          0  iMISS:          0  dACCESS:          0  dHIT:          0  dMISS:          0  itACCESS:      82620  itHIT:      57805  itMISS:      24815  dtACCESS:     180741  dtHIT:     102888  dtMISS:      77853
cpu0_L2C PREFETCH  REQUESTED:    1566654  ISSUED:    1566652  CROSSED:          0  USEFUL:     442240  USELESS:     434557
cpu0_L2C AVERAGE iMISS LATENCY: 21.3466 cycles
cpu0_L2C AVERAGE dMISS LATENCY: 34.7063 cycles
cpu0_L2C AVERAGE itMISS LATENCY: 0.590796 cycles
cpu0_L2C AVERAGE dtMISS LATENCY: 1.62642 cycles
cpu0_L2C PAGE CROSSINGS (TLB HIT):         0 
cpu0_L2C PAGE CROSSINGS (TLB MISS):         0 
cpu0_L2C AVERAGE MISS LATENCY: 58.27 cycles
LLC TOTAL       ACCESS:    5563850  HIT:    4076764  MISS:    1487086  iACCESS:    2500214  iHIT:    1987441  iMISS:     512773  dACCESS:    2960968  dHIT:    2045927  dMISS:     915041  itACCESS:      24815  itHIT:       8193  itMISS:      16622  dtACCESS:      77853  dtHIT:      35203  dtMISS:      42650
LLC LOAD         ACCESS:    1478989  HIT:    1148797  MISS:     330192  iACCESS:     645537  iHIT:     536379  iMISS:     109158  dACCESS:     833452  dHIT:     612418  dMISS:     221034  itACCESS:          0  itHIT:          0  itMISS:          0  dtACCESS:          0  dtHIT:          0  dtMISS:          0
LLC RFO          ACCESS:     121811  HIT:      67470  MISS:      54341  iACCESS:          0  iHIT:          0  iMISS:          0  dACCESS:     121811  dHIT:      67470  dMISS:      54341  itACCESS:          0  itHIT:          0  itMISS:          0  dtACCESS:          0  dtHIT:          0  dtMISS:          0
LLC PREFETCH     ACCESS:    3701871  HIT:    2669152  MISS:    1032719  iACCESS:    1854677  iHIT:    1451062  iMISS:     403615  dACCESS:    1847194  dHIT:    1218090  dMISS:     629104  itACCESS:          0  itHIT:          0  itMISS:          0  dtACCESS:          0  dtHIT:          0  dtMISS:          0
LLC WRITE        ACCESS:     158511  HIT:     147949  MISS:      10562  iACCESS:          0  iHIT:          0  iMISS:          0  dACCESS:     158511  dHIT:     147949  dMISS:      10562  itACCESS:          0  itHIT:          0  itMISS:          0  dtACCESS:          0  dtHIT:          0  dtMISS:          0
LLC TRANSLATION  ACCESS:     102668  HIT:      43396  MISS:      59272  iACCESS:          0  iHIT:          0  iMISS:          0  dACCESS:          0  dHIT:          0  dMISS:          0  itACCESS:      24815  itHIT:       8193  itMISS:      16622  dtACCESS:      77853  dtHIT:      35203  dtMISS:      42650
LLC PREFETCH  REQUESTED:          0  ISSUED:          0  CROSSED:          0  USEFUL:          0  USELESS:          0
LLC AVERAGE iMISS LATENCY: 50.0001 cycles
LLC AVERAGE dMISS LATENCY: 98.6088 cycles
LLC AVERAGE itMISS LATENCY: 1.95641 cycles
LLC AVERAGE dtMISS LATENCY: 5.26572 cycles
LLC PAGE CROSSINGS (TLB HIT):         0 
LLC PAGE CROSSINGS (TLB MISS):         0 
LLC AVERAGE MISS LATENCY: 155.831 cycles

PageTableWalker TOTAL       ACCESS:     116841  
PageTableWalker AVERAGE LATENCY: 4.16007 cycles
PageTableWalker TOTAL LATENCY: 486066 cycles

DRAM Statistics
Channel 0
 RQ ROW_BUFFER_HIT:     445305
  ROW_BUFFER_MISS:    1016324
 AVG DBUS CONGESTED CYCLE:    3.63594
 WQ ROW_BUFFER_HIT:      30160
  ROW_BUFFER_MISS:      25069  FULL:          0

