last_page:0x200000000000000
VMEM_RES_CAP:0x100000
PAGE_SIZE:4096
LOG2_PAGE_SIZE:12
LOG2_PAGE_TABLE_SIZE:9
page_table_levels:5
WARNING: physical memory size is smaller than virtual memory size
FDiP enabled with aggresivity 16

*** ChampSim Multicore Out-of-Order Simulator ***

Warmup Instructions: 50000000
Simulation Instructions: 100000000
Number of CPUs: 1
Small page size: 4096
Large page size: 2097152

CPU 0 Bimodal branch predictor
Basic BTB sets: 1024 ways: 8 indirect buffer size: 4096 RAS size: 64
Instruction page size distrubution: 0
Loading instruction page size distribution from /home/bsc/bsc018186/scratch/itp_asplos25_AE/dump/srv45_ap.pdst
Data page size distrubution: 0
Loading data page size distribution from /home/bsc/bsc018186/scratch/itp_asplos25_AE/dump/srv45_ap.pdst
cpu0_L2C IP-based stride prefetcher
cpu0_L1D next line prefetcher
CHiRPing...
cpu0_L1I next line prefetcher
Off-chip DRAM Size: 4 GiB Channels: 1 Width: 64-bit Data Rate: 3200 MT/s
Heartbeat CPU 0 instructions: 10000003 cycles: 2500285 heartbeat IPC: 3.99955 cumulative IPC: 3.99955 (Simulation time: 0 hr 0 min 38 sec) 
Heartbeat CPU 0 instructions: 20000001 cycles: 5000298 heartbeat IPC: 3.99998 cumulative IPC: 3.99977 (Simulation time: 0 hr 1 min 17 sec) 
Heartbeat CPU 0 instructions: 30000000 cycles: 7500550 heartbeat IPC: 3.9996 cumulative IPC: 3.99971 (Simulation time: 0 hr 1 min 58 sec) 
Heartbeat CPU 0 instructions: 40000000 cycles: 10000556 heartbeat IPC: 4 cumulative IPC: 3.99978 (Simulation time: 0 hr 2 min 38 sec) 
Heartbeat CPU 0 instructions: 50000001 cycles: 12500566 heartbeat IPC: 3.99999 cumulative IPC: 3.99982 (Simulation time: 0 hr 3 min 19 sec) 
Warmup finished CPU 0 instructions: 50000001 cycles: 12500567 cumulative IPC: 3.99982 (Simulation time: 0 hr 3 min 19 sec) 

Warmup complete CPU 0 instructions: 50000001 cycles: 12500567 (Simulation time: 0 hr 3 min 19 sec) 

Heartbeat CPU 0 instructions: 60000000 cycles: 29018431 heartbeat IPC: 0.605406 cumulative IPC: 0.605406 (Simulation time: 0 hr 4 min 26 sec) 
Heartbeat CPU 0 instructions: 70000004 cycles: 45305129 heartbeat IPC: 0.613999 cumulative IPC: 0.609672 (Simulation time: 0 hr 5 min 34 sec) 
Heartbeat CPU 0 instructions: 80000001 cycles: 61830019 heartbeat IPC: 0.605148 cumulative IPC: 0.608156 (Simulation time: 0 hr 6 min 41 sec) 
Heartbeat CPU 0 instructions: 90000004 cycles: 77120370 heartbeat IPC: 0.654008 cumulative IPC: 0.619006 (Simulation time: 0 hr 7 min 48 sec) 
Heartbeat CPU 0 instructions: 100000000 cycles: 92898526 heartbeat IPC: 0.633788 cumulative IPC: 0.621907 (Simulation time: 0 hr 8 min 56 sec) 
*** Reached end of trace: /gpfs/projects/bsc18/MN4/bsc18/romol/ChampSim/traces/qualcomm_srv/srv45_ap.champsimtrace.xz
Heartbeat CPU 0 instructions: 110000001 cycles: 108938366 heartbeat IPC: 0.623448 cumulative IPC: 0.622163 (Simulation time: 0 hr 10 min 2 sec) 
Heartbeat CPU 0 instructions: 120000001 cycles: 123614028 heartbeat IPC: 0.681401 cumulative IPC: 0.629987 (Simulation time: 0 hr 11 min 7 sec) 
Heartbeat CPU 0 instructions: 130000000 cycles: 140523516 heartbeat IPC: 0.591384 cumulative IPC: 0.624888 (Simulation time: 0 hr 12 min 16 sec) 
Heartbeat CPU 0 instructions: 140000003 cycles: 154840189 heartbeat IPC: 0.698487 cumulative IPC: 0.632291 (Simulation time: 0 hr 13 min 21 sec) 
Heartbeat CPU 0 instructions: 150000001 cycles: 170635983 heartbeat IPC: 0.63308 cumulative IPC: 0.63237 (Simulation time: 0 hr 14 min 28 sec) 
Simulation finished CPU 0 instructions: 100000000 cycles: 158135417 cumulative IPC: 0.63237 (Simulation time: 0 hr 14 min 28 sec) 

Simulation complete CPU 0 instructions: 100000000 cycles: 158135417 (Simulation time: 0 hr 14 min 28 sec) 


ChampSim completed all CPUs

Saving instructions large page distribution to /home/bsc/bsc018186/scratch/itp_asplos25_AE/dump/srv45_ap.pdst...
Saving data large page distribution to /home/bsc/bsc018186/scratch/itp_asplos25_AE/dump/srv45_ap.pdst...
=== Simulation ===
CPU 0 runs /gpfs/projects/bsc18/MN4/bsc18/romol/ChampSim/traces/qualcomm_srv/srv45_ap.champsimtrace.xz

Region of Interest Statistics

CPU 0 cumulative IPC: 0.63237 instructions: 100000000 cycles: 158135417
CPU 0 Branch Prediction Accuracy: 82.716% MPKI: 30.931 Average ROB Occupancy at Mispredict: 12.5281
Branch type MPKI
BRANCH_DIRECT_JUMP: 1.06716
BRANCH_INDIRECT: 15.7696
BRANCH_CONDITIONAL: 10.2538
BRANCH_DIRECT_CALL: 1.9307
BRANCH_INDIRECT_CALL: 0.526691
BRANCH_RETURN: 1.38308

Instructions large pages: 0
Instructions small pages: 1017
Large page distribution for instructions: 0%

Data large pages: 0
Data small pages: 9711
Large page distribution for data: 0%

cpu0_L1I TOTAL       ACCESS:   35123585  HIT:   27277583  MISS:    7846002  iACCESS:   35123585  iHIT:   27277583  iMISS:    7846002  dACCESS:          0  dHIT:          0  dMISS:          0  itACCESS:          0  itHIT:          0  itMISS:          0  dtACCESS:          0  dtHIT:          0  dtMISS:          0
cpu0_L1I LOAD         ACCESS:   10308516  HIT:    8106973  MISS:    2201543  iACCESS:   10308516  iHIT:    8106973  iMISS:    2201543  dACCESS:          0  dHIT:          0  dMISS:          0  itACCESS:          0  itHIT:          0  itMISS:          0  dtACCESS:          0  dtHIT:          0  dtMISS:          0
cpu0_L1I RFO          ACCESS:          0  HIT:          0  MISS:          0  iACCESS:          0  iHIT:          0  iMISS:          0  dACCESS:          0  dHIT:          0  dMISS:          0  itACCESS:          0  itHIT:          0  itMISS:          0  dtACCESS:          0  dtHIT:          0  dtMISS:          0
cpu0_L1I PREFETCH     ACCESS:   24815069  HIT:   19170610  MISS:    5644459  iACCESS:   24815069  iHIT:   19170610  iMISS:    5644459  dACCESS:          0  dHIT:          0  dMISS:          0  itACCESS:          0  itHIT:          0  itMISS:          0  dtACCESS:          0  dtHIT:          0  dtMISS:          0
cpu0_L1I WRITE        ACCESS:          0  HIT:          0  MISS:          0  iACCESS:          0  iHIT:          0  iMISS:          0  dACCESS:          0  dHIT:          0  dMISS:          0  itACCESS:          0  itHIT:          0  itMISS:          0  dtACCESS:          0  dtHIT:          0  dtMISS:          0
cpu0_L1I TRANSLATION  ACCESS:          0  HIT:          0  MISS:          0  iACCESS:          0  iHIT:          0  iMISS:          0  dACCESS:          0  dHIT:          0  dMISS:          0  itACCESS:          0  itHIT:          0  itMISS:          0  dtACCESS:          0  dtHIT:          0  dtMISS:          0
cpu0_L1I PREFETCH  REQUESTED:   27361596  ISSUED:   27361596  CROSSED:          0  USEFUL:    1934633  USELESS:     628908
cpu0_L1I AVERAGE iMISS LATENCY: 13.5754 cycles
cpu0_L1I AVERAGE dMISS LATENCY: 0 cycles
cpu0_L1I AVERAGE itMISS LATENCY: 0 cycles
cpu0_L1I AVERAGE dtMISS LATENCY: 0 cycles
cpu0_L1I PAGE CROSSINGS (TLB HIT):         0 
cpu0_L1I PAGE CROSSINGS (TLB MISS):         0 
cpu0_L1I AVERAGE MISS LATENCY: 13.5754 cycles
cpu0_ITLB TOTAL       ACCESS:   29338265  HIT:   27393126  MISS:    1945139  iACCESS:   29338265  iHIT:   27393126  iMISS:    1945139  dACCESS:          0  dHIT:          0  dMISS:          0  itACCESS:          0  itHIT:          0  itMISS:          0  dtACCESS:          0  dtHIT:          0  dtMISS:          0
cpu0_ITLB LOAD         ACCESS:   29338265  HIT:   27393126  MISS:    1945139  iACCESS:   29338265  iHIT:   27393126  iMISS:    1945139  dACCESS:          0  dHIT:          0  dMISS:          0  itACCESS:          0  itHIT:          0  itMISS:          0  dtACCESS:          0  dtHIT:          0  dtMISS:          0
cpu0_ITLB RFO          ACCESS:          0  HIT:          0  MISS:          0  iACCESS:          0  iHIT:          0  iMISS:          0  dACCESS:          0  dHIT:          0  dMISS:          0  itACCESS:          0  itHIT:          0  itMISS:          0  dtACCESS:          0  dtHIT:          0  dtMISS:          0
cpu0_ITLB PREFETCH     ACCESS:          0  HIT:          0  MISS:          0  iACCESS:          0  iHIT:          0  iMISS:          0  dACCESS:          0  dHIT:          0  dMISS:          0  itACCESS:          0  itHIT:          0  itMISS:          0  dtACCESS:          0  dtHIT:          0  dtMISS:          0
cpu0_ITLB WRITE        ACCESS:          0  HIT:          0  MISS:          0  iACCESS:          0  iHIT:          0  iMISS:          0  dACCESS:          0  dHIT:          0  dMISS:          0  itACCESS:          0  itHIT:          0  itMISS:          0  dtACCESS:          0  dtHIT:          0  dtMISS:          0
cpu0_ITLB TRANSLATION  ACCESS:          0  HIT:          0  MISS:          0  iACCESS:          0  iHIT:          0  iMISS:          0  dACCESS:          0  dHIT:          0  dMISS:          0  itACCESS:          0  itHIT:          0  itMISS:          0  dtACCESS:          0  dtHIT:          0  dtMISS:          0
cpu0_ITLB PREFETCH  REQUESTED:          0  ISSUED:          0  CROSSED:          0  USEFUL:     316845  USELESS:      64230
cpu0_ITLB AVERAGE iMISS LATENCY: 5.39787 cycles
cpu0_ITLB AVERAGE dMISS LATENCY: 0 cycles
cpu0_ITLB AVERAGE itMISS LATENCY: 0 cycles
cpu0_ITLB AVERAGE dtMISS LATENCY: 0 cycles
cpu0_ITLB PAGE CROSSINGS (TLB HIT):         0 
cpu0_ITLB PAGE CROSSINGS (TLB MISS):         0 
cpu0_ITLB AVERAGE MISS LATENCY: 5.39787 cycles
cpu0_DTLB TOTAL       ACCESS:   27734122  HIT:   25635441  MISS:    2098681  iACCESS:          0  iHIT:          0  iMISS:          0  dACCESS:   27734122  dHIT:   25635441  dMISS:    2098681  itACCESS:          0  itHIT:          0  itMISS:          0  dtACCESS:          0  dtHIT:          0  dtMISS:          0
cpu0_DTLB LOAD         ACCESS:   27734122  HIT:   25635441  MISS:    2098681  iACCESS:          0  iHIT:          0  iMISS:          0  dACCESS:   27734122  dHIT:   25635441  dMISS:    2098681  itACCESS:          0  itHIT:          0  itMISS:          0  dtACCESS:          0  dtHIT:          0  dtMISS:          0
cpu0_DTLB RFO          ACCESS:          0  HIT:          0  MISS:          0  iACCESS:          0  iHIT:          0  iMISS:          0  dACCESS:          0  dHIT:          0  dMISS:          0  itACCESS:          0  itHIT:          0  itMISS:          0  dtACCESS:          0  dtHIT:          0  dtMISS:          0
cpu0_DTLB PREFETCH     ACCESS:          0  HIT:          0  MISS:          0  iACCESS:          0  iHIT:          0  iMISS:          0  dACCESS:          0  dHIT:          0  dMISS:          0  itACCESS:          0  itHIT:          0  itMISS:          0  dtACCESS:          0  dtHIT:          0  dtMISS:          0
cpu0_DTLB WRITE        ACCESS:          0  HIT:          0  MISS:          0  iACCESS:          0  iHIT:          0  iMISS:          0  dACCESS:          0  dHIT:          0  dMISS:          0  itACCESS:          0  itHIT:          0  itMISS:          0  dtACCESS:          0  dtHIT:          0  dtMISS:          0
cpu0_DTLB TRANSLATION  ACCESS:          0  HIT:          0  MISS:          0  iACCESS:          0  iHIT:          0  iMISS:          0  dACCESS:          0  dHIT:          0  dMISS:          0  itACCESS:          0  itHIT:          0  itMISS:          0  dtACCESS:          0  dtHIT:          0  dtMISS:          0
cpu0_DTLB PREFETCH  REQUESTED:          0  ISSUED:          0  CROSSED:          0  USEFUL:          0  USELESS:          0
cpu0_DTLB AVERAGE iMISS LATENCY: 0 cycles
cpu0_DTLB AVERAGE dMISS LATENCY: 14.8449 cycles
cpu0_DTLB AVERAGE itMISS LATENCY: 0 cycles
cpu0_DTLB AVERAGE dtMISS LATENCY: 0 cycles
cpu0_DTLB PAGE CROSSINGS (TLB HIT):         0 
cpu0_DTLB PAGE CROSSINGS (TLB MISS):         0 
cpu0_DTLB AVERAGE MISS LATENCY: 14.8449 cycles
cpu0_STLB TOTAL       ACCESS:    1625587  HIT:    1451320  MISS:     174267  iACCESS:     381080  iHIT:     319973  iMISS:      61107  dACCESS:    1244507  dHIT:    1131347  dMISS:     113160  itACCESS:          0  itHIT:          0  itMISS:          0  dtACCESS:          0  dtHIT:          0  dtMISS:          0
cpu0_STLB LOAD         ACCESS:    1625587  HIT:    1451320  MISS:     174267  iACCESS:     381080  iHIT:     319973  iMISS:      61107  dACCESS:    1244507  dHIT:    1131347  dMISS:     113160  itACCESS:          0  itHIT:          0  itMISS:          0  dtACCESS:          0  dtHIT:          0  dtMISS:          0
cpu0_STLB RFO          ACCESS:          0  HIT:          0  MISS:          0  iACCESS:          0  iHIT:          0  iMISS:          0  dACCESS:          0  dHIT:          0  dMISS:          0  itACCESS:          0  itHIT:          0  itMISS:          0  dtACCESS:          0  dtHIT:          0  dtMISS:          0
cpu0_STLB PREFETCH     ACCESS:          0  HIT:          0  MISS:          0  iACCESS:          0  iHIT:          0  iMISS:          0  dACCESS:          0  dHIT:          0  dMISS:          0  itACCESS:          0  itHIT:          0  itMISS:          0  dtACCESS:          0  dtHIT:          0  dtMISS:          0
cpu0_STLB WRITE        ACCESS:          0  HIT:          0  MISS:          0  iACCESS:          0  iHIT:          0  iMISS:          0  dACCESS:          0  dHIT:          0  dMISS:          0  itACCESS:          0  itHIT:          0  itMISS:          0  dtACCESS:          0  dtHIT:          0  dtMISS:          0
cpu0_STLB TRANSLATION  ACCESS:          0  HIT:          0  MISS:          0  iACCESS:          0  iHIT:          0  iMISS:          0  dACCESS:          0  dHIT:          0  dMISS:          0  itACCESS:          0  itHIT:          0  itMISS:          0  dtACCESS:          0  dtHIT:          0  dtMISS:          0
cpu0_STLB PREFETCH  REQUESTED:          0  ISSUED:          0  CROSSED:          0  USEFUL:          0  USELESS:          0
cpu0_STLB AVERAGE iMISS LATENCY: 42.9496 cycles
cpu0_STLB AVERAGE dMISS LATENCY: 121.827 cycles
cpu0_STLB AVERAGE itMISS LATENCY: 0 cycles
cpu0_STLB AVERAGE dtMISS LATENCY: 0 cycles
cpu0_STLB PAGE CROSSINGS (TLB HIT):         0 
cpu0_STLB PAGE CROSSINGS (TLB MISS):         0 
cpu0_STLB AVERAGE MISS LATENCY: 164.777 cycles
cpu0_L1D TOTAL       ACCESS:   41549970  HIT:   38092411  MISS:    3457559  iACCESS:          0  iHIT:          0  iMISS:          0  dACCESS:   41314401  dHIT:   38071631  dMISS:    3242770  itACCESS:      66341  itHIT:       9582  itMISS:      56759  dtACCESS:     169228  dtHIT:      11198  dtMISS:     158030
cpu0_L1D LOAD         ACCESS:   18938934  HIT:   17459421  MISS:    1479513  iACCESS:          0  iHIT:          0  iMISS:          0  dACCESS:   18938934  dHIT:   17459421  dMISS:    1479513  itACCESS:          0  itHIT:          0  itMISS:          0  dtACCESS:          0  dtHIT:          0  dtMISS:          0
cpu0_L1D RFO          ACCESS:          0  HIT:          0  MISS:          0  iACCESS:          0  iHIT:          0  iMISS:          0  dACCESS:          0  dHIT:          0  dMISS:          0  itACCESS:          0  itHIT:          0  itMISS:          0  dtACCESS:          0  dtHIT:          0  dtMISS:          0
cpu0_L1D PREFETCH     ACCESS:   12194261  HIT:   10862634  MISS:    1331627  iACCESS:          0  iHIT:          0  iMISS:          0  dACCESS:   12194261  dHIT:   10862634  dMISS:    1331627  itACCESS:          0  itHIT:          0  itMISS:          0  dtACCESS:          0  dtHIT:          0  dtMISS:          0
cpu0_L1D WRITE        ACCESS:   10181206  HIT:    9749576  MISS:     431630  iACCESS:          0  iHIT:          0  iMISS:          0  dACCESS:   10181206  dHIT:    9749576  dMISS:     431630  itACCESS:          0  itHIT:          0  itMISS:          0  dtACCESS:          0  dtHIT:          0  dtMISS:          0
cpu0_L1D TRANSLATION  ACCESS:     235569  HIT:      20780  MISS:     214789  iACCESS:          0  iHIT:          0  iMISS:          0  dACCESS:          0  dHIT:          0  dMISS:          0  itACCESS:      66341  itHIT:       9582  itMISS:      56759  dtACCESS:     169228  dtHIT:      11198  dtMISS:     158030
cpu0_L1D PREFETCH  REQUESTED:   18938934  ISSUED:   17043250  CROSSED:          0  USEFUL:     304022  USELESS:     702862
cpu0_L1D AVERAGE iMISS LATENCY: 0 cycles
cpu0_L1D AVERAGE dMISS LATENCY: 33.9203 cycles
cpu0_L1D AVERAGE itMISS LATENCY: 2.00899 cycles
cpu0_L1D AVERAGE dtMISS LATENCY: 5.4158 cycles
cpu0_L1D PAGE CROSSINGS (TLB HIT):         0 
cpu0_L1D PAGE CROSSINGS (TLB MISS):         0 
cpu0_L1D AVERAGE MISS LATENCY: 41.3451 cycles
cpu0_L2C TOTAL       ACCESS:    7011316  HIT:    4021757  MISS:    2989559  iACCESS:    3308920  iHIT:    2189504  iMISS:    1119416  dACCESS:    3496969  dHIT:    1801311  dMISS:    1695658  itACCESS:      56759  itHIT:      10366  itMISS:      46393  dtACCESS:     148668  dtHIT:      20576  dtMISS:     128092
cpu0_L2C LOAD         ACCESS:    1714638  HIT:    1023995  MISS:     690643  iACCESS:     784796  iHIT:     546977  iMISS:     237819  dACCESS:     929842  dHIT:     477018  dMISS:     452824  itACCESS:          0  itHIT:          0  itMISS:          0  dtACCESS:          0  dtHIT:          0  dtMISS:          0
cpu0_L2C RFO          ACCESS:     158496  HIT:      72827  MISS:      85669  iACCESS:          0  iHIT:          0  iMISS:          0  dACCESS:     158496  dHIT:      72827  dMISS:      85669  itACCESS:          0  itHIT:          0  itMISS:          0  dtACCESS:          0  dtHIT:          0  dtMISS:          0
cpu0_L2C PREFETCH     ACCESS:    4652849  HIT:    2615524  MISS:    2037325  iACCESS:    2524124  iHIT:    1642527  iMISS:     881597  dACCESS:    2128725  dHIT:     972997  dMISS:    1155728  itACCESS:          0  itHIT:          0  itMISS:          0  dtACCESS:          0  dtHIT:          0  dtMISS:          0
cpu0_L2C WRITE        ACCESS:     279906  HIT:     278469  MISS:       1437  iACCESS:          0  iHIT:          0  iMISS:          0  dACCESS:     279906  dHIT:     278469  dMISS:       1437  itACCESS:          0  itHIT:          0  itMISS:          0  dtACCESS:          0  dtHIT:          0  dtMISS:          0
cpu0_L2C TRANSLATION  ACCESS:     205427  HIT:      30942  MISS:     174485  iACCESS:          0  iHIT:          0  iMISS:          0  dACCESS:          0  dHIT:          0  dMISS:          0  itACCESS:      56759  itHIT:      10366  itMISS:      46393  dtACCESS:     148668  dtHIT:      20576  dtMISS:     128092
cpu0_L2C PREFETCH  REQUESTED:    1378746  ISSUED:    1378746  CROSSED:          0  USEFUL:     330954  USELESS:     236946
cpu0_L2C AVERAGE iMISS LATENCY: 25.575 cycles
cpu0_L2C AVERAGE dMISS LATENCY: 47.1396 cycles
cpu0_L2C AVERAGE itMISS LATENCY: 2.13653 cycles
cpu0_L2C AVERAGE dtMISS LATENCY: 5.76941 cycles
cpu0_L2C PAGE CROSSINGS (TLB HIT):         0 
cpu0_L2C PAGE CROSSINGS (TLB MISS):         0 
cpu0_L2C AVERAGE MISS LATENCY: 80.6204 cycles
LLC TOTAL       ACCESS:    3004329  HIT:    1834132  MISS:    1170197  iACCESS:    1062330  iHIT:     682891  iMISS:     379439  dACCESS:    1767514  dHIT:    1090012  dMISS:     677502  itACCESS:      46393  itHIT:      14508  itMISS:      31885  dtACCESS:     128092  dtHIT:      46721  dtMISS:      81371
LLC LOAD         ACCESS:     689078  HIT:     439741  MISS:     249337  iACCESS:     236546  iHIT:     155623  iMISS:      80923  dACCESS:     452532  dHIT:     284118  dMISS:     168414  itACCESS:          0  itHIT:          0  itMISS:          0  dtACCESS:          0  dtHIT:          0  dtMISS:          0
LLC RFO          ACCESS:      85665  HIT:      43115  MISS:      42550  iACCESS:          0  iHIT:          0  iMISS:          0  dACCESS:      85665  dHIT:      43115  dMISS:      42550  itACCESS:          0  itHIT:          0  itMISS:          0  dtACCESS:          0  dtHIT:          0  dtMISS:          0
LLC PREFETCH     ACCESS:    1922365  HIT:    1163766  MISS:     758599  iACCESS:     825784  iHIT:     527268  iMISS:     298516  dACCESS:    1096581  dHIT:     636498  dMISS:     460083  itACCESS:          0  itHIT:          0  itMISS:          0  dtACCESS:          0  dtHIT:          0  dtMISS:          0
LLC WRITE        ACCESS:     132736  HIT:     126281  MISS:       6455  iACCESS:          0  iHIT:          0  iMISS:          0  dACCESS:     132736  dHIT:     126281  dMISS:       6455  itACCESS:          0  itHIT:          0  itMISS:          0  dtACCESS:          0  dtHIT:          0  dtMISS:          0
LLC TRANSLATION  ACCESS:     174485  HIT:      61229  MISS:     113256  iACCESS:          0  iHIT:          0  iMISS:          0  dACCESS:          0  dHIT:          0  dMISS:          0  itACCESS:      46393  itHIT:      14508  itMISS:      31885  dtACCESS:     128092  dtHIT:      46721  dtMISS:      81371
LLC PREFETCH  REQUESTED:          0  ISSUED:          0  CROSSED:          0  USEFUL:          0  USELESS:          0
LLC AVERAGE iMISS LATENCY: 47.6639 cycles
LLC AVERAGE dMISS LATENCY: 93.4966 cycles
LLC AVERAGE itMISS LATENCY: 4.67985 cycles
LLC AVERAGE dtMISS LATENCY: 12.5974 cycles
LLC PAGE CROSSINGS (TLB HIT):         0 
LLC PAGE CROSSINGS (TLB MISS):         0 
LLC AVERAGE MISS LATENCY: 158.438 cycles

PageTableWalker TOTAL       ACCESS:      88244  
PageTableWalker AVERAGE LATENCY: 5.20629 cycles
PageTableWalker TOTAL LATENCY: 459423 cycles

DRAM Statistics
Channel 0
 RQ ROW_BUFFER_HIT:     310637
  ROW_BUFFER_MISS:     852999
 AVG DBUS CONGESTED CYCLE:    3.62008
 WQ ROW_BUFFER_HIT:      22233
  ROW_BUFFER_MISS:      20871  FULL:          0

