last_page:0x200000000000000
VMEM_RES_CAP:0x100000
PAGE_SIZE:4096
LOG2_PAGE_SIZE:12
LOG2_PAGE_TABLE_SIZE:9
page_table_levels:5
WARNING: physical memory size is smaller than virtual memory size
FDiP enabled with aggresivity 16

*** ChampSim Multicore Out-of-Order Simulator ***

Warmup Instructions: 50000000
Simulation Instructions: 100000000
Number of CPUs: 1
Small page size: 4096
Large page size: 2097152

CPU 0 Bimodal branch predictor
Basic BTB sets: 1024 ways: 8 indirect buffer size: 4096 RAS size: 64
Instruction page size distrubution: 0
Loading instruction page size distribution from /home/bsc/bsc018186/scratch/itp_asplos25_AE/dump/srv459_ap.pdst
Data page size distrubution: 0
Loading data page size distribution from /home/bsc/bsc018186/scratch/itp_asplos25_AE/dump/srv459_ap.pdst
cpu0_L2C IP-based stride prefetcher
cpu0_L2C is using PTP replacement policy:
	TLB_STRESS_THRESHOLD:0
	PTE_EVICTION_RATIO:0
cpu0_L1D next line prefetcher
cpu0_L1I next line prefetcher
Off-chip DRAM Size: 4 GiB Channels: 1 Width: 64-bit Data Rate: 3200 MT/s
Heartbeat CPU 0 instructions: 10000001 cycles: 2500206 heartbeat IPC: 3.99968 cumulative IPC: 3.99968 (Simulation time: 0 hr 0 min 38 sec) 
Heartbeat CPU 0 instructions: 20000003 cycles: 5000251 heartbeat IPC: 3.99993 cumulative IPC: 3.9998 (Simulation time: 0 hr 1 min 19 sec) 
Heartbeat CPU 0 instructions: 30000003 cycles: 7500256 heartbeat IPC: 4 cumulative IPC: 3.99987 (Simulation time: 0 hr 2 min 0 sec) 
Heartbeat CPU 0 instructions: 40000002 cycles: 10000458 heartbeat IPC: 3.99968 cumulative IPC: 3.99982 (Simulation time: 0 hr 2 min 41 sec) 
Heartbeat CPU 0 instructions: 50000002 cycles: 12500463 heartbeat IPC: 4 cumulative IPC: 3.99986 (Simulation time: 0 hr 3 min 22 sec) 
Warmup finished CPU 0 instructions: 50000002 cycles: 12500464 cumulative IPC: 3.99986 (Simulation time: 0 hr 3 min 22 sec) 

Warmup complete CPU 0 instructions: 50000002 cycles: 12500464 (Simulation time: 0 hr 3 min 22 sec) 

Heartbeat CPU 0 instructions: 60000000 cycles: 27152678 heartbeat IPC: 0.682491 cumulative IPC: 0.682491 (Simulation time: 0 hr 4 min 26 sec) 
Heartbeat CPU 0 instructions: 70000000 cycles: 41675473 heartbeat IPC: 0.688573 cumulative IPC: 0.685519 (Simulation time: 0 hr 5 min 30 sec) 
Heartbeat CPU 0 instructions: 80000000 cycles: 55745470 heartbeat IPC: 0.710733 cumulative IPC: 0.693722 (Simulation time: 0 hr 6 min 34 sec) 
Heartbeat CPU 0 instructions: 90000001 cycles: 70103302 heartbeat IPC: 0.696485 cumulative IPC: 0.694411 (Simulation time: 0 hr 7 min 38 sec) 
Heartbeat CPU 0 instructions: 100000002 cycles: 84280206 heartbeat IPC: 0.705373 cumulative IPC: 0.696576 (Simulation time: 0 hr 8 min 43 sec) 
*** Reached end of trace: /gpfs/projects/bsc18/MN4/bsc18/romol/ChampSim/traces/qualcomm_srv/srv459_ap.champsimtrace.xz
Heartbeat CPU 0 instructions: 110000001 cycles: 98023086 heartbeat IPC: 0.72765 cumulative IPC: 0.701569 (Simulation time: 0 hr 9 min 47 sec) 
Heartbeat CPU 0 instructions: 120000002 cycles: 111325088 heartbeat IPC: 0.751767 cumulative IPC: 0.708326 (Simulation time: 0 hr 10 min 50 sec) 
Heartbeat CPU 0 instructions: 130000000 cycles: 125187943 heartbeat IPC: 0.721352 cumulative IPC: 0.709929 (Simulation time: 0 hr 11 min 53 sec) 
Heartbeat CPU 0 instructions: 140000002 cycles: 138914423 heartbeat IPC: 0.72852 cumulative IPC: 0.711947 (Simulation time: 0 hr 12 min 56 sec) 
Heartbeat CPU 0 instructions: 150000000 cycles: 152879874 heartbeat IPC: 0.716053 cumulative IPC: 0.712356 (Simulation time: 0 hr 14 min 0 sec) 
Simulation finished CPU 0 instructions: 100000002 cycles: 140379412 cumulative IPC: 0.712356 (Simulation time: 0 hr 14 min 0 sec) 

Simulation complete CPU 0 instructions: 100000002 cycles: 140379412 (Simulation time: 0 hr 14 min 0 sec) 


ChampSim completed all CPUs

Saving instructions large page distribution to /home/bsc/bsc018186/scratch/itp_asplos25_AE/dump/srv459_ap.pdst...
Saving data large page distribution to /home/bsc/bsc018186/scratch/itp_asplos25_AE/dump/srv459_ap.pdst...
=== Simulation ===
CPU 0 runs /gpfs/projects/bsc18/MN4/bsc18/romol/ChampSim/traces/qualcomm_srv/srv459_ap.champsimtrace.xz

Region of Interest Statistics

CPU 0 cumulative IPC: 0.712356 instructions: 100000002 cycles: 140379412
CPU 0 Branch Prediction Accuracy: 83.3738% MPKI: 29.7268 Average ROB Occupancy at Mispredict: 12.4584
Branch type MPKI
BRANCH_DIRECT_JUMP: 1.02552
BRANCH_INDIRECT: 15.3168
BRANCH_CONDITIONAL: 9.68338
BRANCH_DIRECT_CALL: 1.84683
BRANCH_INDIRECT_CALL: 0.51366
BRANCH_RETURN: 1.34066

Instructions large pages: 0
Instructions small pages: 995
Large page distribution for instructions: 0%

Data large pages: 0
Data small pages: 10329
Large page distribution for data: 0%

cpu0_L1I TOTAL       ACCESS:   35255136  HIT:   26923420  MISS:    8331716  iACCESS:   35255136  iHIT:   26923420  iMISS:    8331716  dACCESS:          0  dHIT:          0  dMISS:          0  itACCESS:          0  itHIT:          0  itMISS:          0  dtACCESS:          0  dtHIT:          0  dtMISS:          0
cpu0_L1I LOAD         ACCESS:   10358506  HIT:    8026857  MISS:    2331649  iACCESS:   10358506  iHIT:    8026857  iMISS:    2331649  dACCESS:          0  dHIT:          0  dMISS:          0  itACCESS:          0  itHIT:          0  itMISS:          0  dtACCESS:          0  dtHIT:          0  dtMISS:          0
cpu0_L1I RFO          ACCESS:          0  HIT:          0  MISS:          0  iACCESS:          0  iHIT:          0  iMISS:          0  dACCESS:          0  dHIT:          0  dMISS:          0  itACCESS:          0  itHIT:          0  itMISS:          0  dtACCESS:          0  dtHIT:          0  dtMISS:          0
cpu0_L1I PREFETCH     ACCESS:   24896630  HIT:   18896563  MISS:    6000067  iACCESS:   24896630  iHIT:   18896563  iMISS:    6000067  dACCESS:          0  dHIT:          0  dMISS:          0  itACCESS:          0  itHIT:          0  itMISS:          0  dtACCESS:          0  dtHIT:          0  dtMISS:          0
cpu0_L1I WRITE        ACCESS:          0  HIT:          0  MISS:          0  iACCESS:          0  iHIT:          0  iMISS:          0  dACCESS:          0  dHIT:          0  dMISS:          0  itACCESS:          0  itHIT:          0  itMISS:          0  dtACCESS:          0  dtHIT:          0  dtMISS:          0
cpu0_L1I TRANSLATION  ACCESS:          0  HIT:          0  MISS:          0  iACCESS:          0  iHIT:          0  iMISS:          0  dACCESS:          0  dHIT:          0  dMISS:          0  itACCESS:          0  itHIT:          0  itMISS:          0  dtACCESS:          0  dtHIT:          0  dtMISS:          0
cpu0_L1I PREFETCH  REQUESTED:   27243903  ISSUED:   27241987  CROSSED:          0  USEFUL:    1889153  USELESS:     622751
cpu0_L1I AVERAGE iMISS LATENCY: 13.9371 cycles
cpu0_L1I AVERAGE dMISS LATENCY: 0 cycles
cpu0_L1I AVERAGE itMISS LATENCY: 0 cycles
cpu0_L1I AVERAGE dtMISS LATENCY: 0 cycles
cpu0_L1I PAGE CROSSINGS (TLB HIT):         0 
cpu0_L1I PAGE CROSSINGS (TLB MISS):         0 
cpu0_L1I AVERAGE MISS LATENCY: 13.9371 cycles
cpu0_ITLB TOTAL       ACCESS:   29125231  HIT:   27168355  MISS:    1956876  iACCESS:   29125231  iHIT:   27168355  iMISS:    1956876  dACCESS:          0  dHIT:          0  dMISS:          0  itACCESS:          0  itHIT:          0  itMISS:          0  dtACCESS:          0  dtHIT:          0  dtMISS:          0
cpu0_ITLB LOAD         ACCESS:   29125231  HIT:   27168355  MISS:    1956876  iACCESS:   29125231  iHIT:   27168355  iMISS:    1956876  dACCESS:          0  dHIT:          0  dMISS:          0  itACCESS:          0  itHIT:          0  itMISS:          0  dtACCESS:          0  dtHIT:          0  dtMISS:          0
cpu0_ITLB RFO          ACCESS:          0  HIT:          0  MISS:          0  iACCESS:          0  iHIT:          0  iMISS:          0  dACCESS:          0  dHIT:          0  dMISS:          0  itACCESS:          0  itHIT:          0  itMISS:          0  dtACCESS:          0  dtHIT:          0  dtMISS:          0
cpu0_ITLB PREFETCH     ACCESS:          0  HIT:          0  MISS:          0  iACCESS:          0  iHIT:          0  iMISS:          0  dACCESS:          0  dHIT:          0  dMISS:          0  itACCESS:          0  itHIT:          0  itMISS:          0  dtACCESS:          0  dtHIT:          0  dtMISS:          0
cpu0_ITLB WRITE        ACCESS:          0  HIT:          0  MISS:          0  iACCESS:          0  iHIT:          0  iMISS:          0  dACCESS:          0  dHIT:          0  dMISS:          0  itACCESS:          0  itHIT:          0  itMISS:          0  dtACCESS:          0  dtHIT:          0  dtMISS:          0
cpu0_ITLB TRANSLATION  ACCESS:          0  HIT:          0  MISS:          0  iACCESS:          0  iHIT:          0  iMISS:          0  dACCESS:          0  dHIT:          0  dMISS:          0  itACCESS:          0  itHIT:          0  itMISS:          0  dtACCESS:          0  dtHIT:          0  dtMISS:          0
cpu0_ITLB PREFETCH  REQUESTED:          0  ISSUED:          0  CROSSED:          0  USEFUL:     320595  USELESS:      65548
cpu0_ITLB AVERAGE iMISS LATENCY: 2.80374 cycles
cpu0_ITLB AVERAGE dMISS LATENCY: 0 cycles
cpu0_ITLB AVERAGE itMISS LATENCY: 0 cycles
cpu0_ITLB AVERAGE dtMISS LATENCY: 0 cycles
cpu0_ITLB PAGE CROSSINGS (TLB HIT):         0 
cpu0_ITLB PAGE CROSSINGS (TLB MISS):         0 
cpu0_ITLB AVERAGE MISS LATENCY: 2.80374 cycles
cpu0_DTLB TOTAL       ACCESS:   27696223  HIT:   25773031  MISS:    1923192  iACCESS:          0  iHIT:          0  iMISS:          0  dACCESS:   27696223  dHIT:   25773031  dMISS:    1923192  itACCESS:          0  itHIT:          0  itMISS:          0  dtACCESS:          0  dtHIT:          0  dtMISS:          0
cpu0_DTLB LOAD         ACCESS:   27696223  HIT:   25773031  MISS:    1923192  iACCESS:          0  iHIT:          0  iMISS:          0  dACCESS:   27696223  dHIT:   25773031  dMISS:    1923192  itACCESS:          0  itHIT:          0  itMISS:          0  dtACCESS:          0  dtHIT:          0  dtMISS:          0
cpu0_DTLB RFO          ACCESS:          0  HIT:          0  MISS:          0  iACCESS:          0  iHIT:          0  iMISS:          0  dACCESS:          0  dHIT:          0  dMISS:          0  itACCESS:          0  itHIT:          0  itMISS:          0  dtACCESS:          0  dtHIT:          0  dtMISS:          0
cpu0_DTLB PREFETCH     ACCESS:          0  HIT:          0  MISS:          0  iACCESS:          0  iHIT:          0  iMISS:          0  dACCESS:          0  dHIT:          0  dMISS:          0  itACCESS:          0  itHIT:          0  itMISS:          0  dtACCESS:          0  dtHIT:          0  dtMISS:          0
cpu0_DTLB WRITE        ACCESS:          0  HIT:          0  MISS:          0  iACCESS:          0  iHIT:          0  iMISS:          0  dACCESS:          0  dHIT:          0  dMISS:          0  itACCESS:          0  itHIT:          0  itMISS:          0  dtACCESS:          0  dtHIT:          0  dtMISS:          0
cpu0_DTLB TRANSLATION  ACCESS:          0  HIT:          0  MISS:          0  iACCESS:          0  iHIT:          0  iMISS:          0  dACCESS:          0  dHIT:          0  dMISS:          0  itACCESS:          0  itHIT:          0  itMISS:          0  dtACCESS:          0  dtHIT:          0  dtMISS:          0
cpu0_DTLB PREFETCH  REQUESTED:          0  ISSUED:          0  CROSSED:          0  USEFUL:          0  USELESS:          0
cpu0_DTLB AVERAGE iMISS LATENCY: 0 cycles
cpu0_DTLB AVERAGE dMISS LATENCY: 9.06186 cycles
cpu0_DTLB AVERAGE itMISS LATENCY: 0 cycles
cpu0_DTLB AVERAGE dtMISS LATENCY: 0 cycles
cpu0_DTLB PAGE CROSSINGS (TLB HIT):         0 
cpu0_DTLB PAGE CROSSINGS (TLB MISS):         0 
cpu0_DTLB AVERAGE MISS LATENCY: 9.06186 cycles
cpu0_STLB TOTAL       ACCESS:    1536388  HIT:    1362725  MISS:     173663  iACCESS:     386166  iHIT:     323086  iMISS:      63080  dACCESS:    1150222  dHIT:    1039639  dMISS:     110583  itACCESS:          0  itHIT:          0  itMISS:          0  dtACCESS:          0  dtHIT:          0  dtMISS:          0
cpu0_STLB LOAD         ACCESS:    1536388  HIT:    1362725  MISS:     173663  iACCESS:     386166  iHIT:     323086  iMISS:      63080  dACCESS:    1150222  dHIT:    1039639  dMISS:     110583  itACCESS:          0  itHIT:          0  itMISS:          0  dtACCESS:          0  dtHIT:          0  dtMISS:          0
cpu0_STLB RFO          ACCESS:          0  HIT:          0  MISS:          0  iACCESS:          0  iHIT:          0  iMISS:          0  dACCESS:          0  dHIT:          0  dMISS:          0  itACCESS:          0  itHIT:          0  itMISS:          0  dtACCESS:          0  dtHIT:          0  dtMISS:          0
cpu0_STLB PREFETCH     ACCESS:          0  HIT:          0  MISS:          0  iACCESS:          0  iHIT:          0  iMISS:          0  dACCESS:          0  dHIT:          0  dMISS:          0  itACCESS:          0  itHIT:          0  itMISS:          0  dtACCESS:          0  dtHIT:          0  dtMISS:          0
cpu0_STLB WRITE        ACCESS:          0  HIT:          0  MISS:          0  iACCESS:          0  iHIT:          0  iMISS:          0  dACCESS:          0  dHIT:          0  dMISS:          0  itACCESS:          0  itHIT:          0  itMISS:          0  dtACCESS:          0  dtHIT:          0  dtMISS:          0
cpu0_STLB TRANSLATION  ACCESS:          0  HIT:          0  MISS:          0  iACCESS:          0  iHIT:          0  iMISS:          0  dACCESS:          0  dHIT:          0  dMISS:          0  itACCESS:          0  itHIT:          0  itMISS:          0  dtACCESS:          0  dtHIT:          0  dtMISS:          0
cpu0_STLB PREFETCH  REQUESTED:          0  ISSUED:          0  CROSSED:          0  USEFUL:          0  USELESS:          0
cpu0_STLB AVERAGE iMISS LATENCY: 14.0103 cycles
cpu0_STLB AVERAGE dMISS LATENCY: 47.5451 cycles
cpu0_STLB AVERAGE itMISS LATENCY: 0 cycles
cpu0_STLB AVERAGE dtMISS LATENCY: 0 cycles
cpu0_STLB PAGE CROSSINGS (TLB HIT):         0 
cpu0_STLB PAGE CROSSINGS (TLB MISS):         0 
cpu0_STLB AVERAGE MISS LATENCY: 61.5554 cycles
cpu0_L1D TOTAL       ACCESS:   41446189  HIT:   37949687  MISS:    3496502  iACCESS:          0  iHIT:          0  iMISS:          0  dACCESS:   41211985  dHIT:   37928243  dMISS:    3283742  itACCESS:      68652  itHIT:      10202  itMISS:      58450  dtACCESS:     165552  dtHIT:      11242  dtMISS:     154310
cpu0_L1D LOAD         ACCESS:   18937371  HIT:   17449737  MISS:    1487634  iACCESS:          0  iHIT:          0  iMISS:          0  dACCESS:   18937371  dHIT:   17449737  dMISS:    1487634  itACCESS:          0  itHIT:          0  itMISS:          0  dtACCESS:          0  dtHIT:          0  dtMISS:          0
cpu0_L1D RFO          ACCESS:          0  HIT:          0  MISS:          0  iACCESS:          0  iHIT:          0  iMISS:          0  dACCESS:          0  dHIT:          0  dMISS:          0  itACCESS:          0  itHIT:          0  itMISS:          0  dtACCESS:          0  dtHIT:          0  dtMISS:          0
cpu0_L1D PREFETCH     ACCESS:   12102493  HIT:   10744122  MISS:    1358371  iACCESS:          0  iHIT:          0  iMISS:          0  dACCESS:   12102493  dHIT:   10744122  dMISS:    1358371  itACCESS:          0  itHIT:          0  itMISS:          0  dtACCESS:          0  dtHIT:          0  dtMISS:          0
cpu0_L1D WRITE        ACCESS:   10172121  HIT:    9734384  MISS:     437737  iACCESS:          0  iHIT:          0  iMISS:          0  dACCESS:   10172121  dHIT:    9734384  dMISS:     437737  itACCESS:          0  itHIT:          0  itMISS:          0  dtACCESS:          0  dtHIT:          0  dtMISS:          0
cpu0_L1D TRANSLATION  ACCESS:     234204  HIT:      21444  MISS:     212760  iACCESS:          0  iHIT:          0  iMISS:          0  dACCESS:          0  dHIT:          0  dMISS:          0  itACCESS:      68652  itHIT:      10202  itMISS:      58450  dtACCESS:     165552  dtHIT:      11242  dtMISS:     154310
cpu0_L1D PREFETCH  REQUESTED:   18937371  ISSUED:   16918452  CROSSED:          0  USEFUL:     305017  USELESS:     694614
cpu0_L1D AVERAGE iMISS LATENCY: 0 cycles
cpu0_L1D AVERAGE dMISS LATENCY: 35.3499 cycles
cpu0_L1D AVERAGE itMISS LATENCY: 0.538507 cycles
cpu0_L1D AVERAGE dtMISS LATENCY: 1.64098 cycles
cpu0_L1D PAGE CROSSINGS (TLB HIT):         0 
cpu0_L1D PAGE CROSSINGS (TLB MISS):         0 
cpu0_L1D AVERAGE MISS LATENCY: 37.5294 cycles
cpu0_L2C TOTAL       ACCESS:    6893461  HIT:    1224947  MISS:    5668514  iACCESS:    3260314  iHIT:     690945  iMISS:    2569369  dACCESS:    3428799  dHIT:     370496  dMISS:    3058303  itACCESS:      58450  itHIT:      47181  itMISS:      11269  dtACCESS:     145898  dtHIT:     116325  dtMISS:      29573
cpu0_L2C LOAD         ACCESS:    1701191  HIT:     132367  MISS:    1568824  iACCESS:     780949  iHIT:      97114  iMISS:     683835  dACCESS:     920242  dHIT:      35253  dMISS:     884989  itACCESS:          0  itHIT:          0  itMISS:          0  dtACCESS:          0  dtHIT:          0  dtMISS:          0
cpu0_L2C RFO          ACCESS:     156006  HIT:       9643  MISS:     146363  iACCESS:          0  iHIT:          0  iMISS:          0  dACCESS:     156006  dHIT:       9643  dMISS:     146363  itACCESS:          0  itHIT:          0  itMISS:          0  dtACCESS:          0  dtHIT:          0  dtMISS:          0
cpu0_L2C PREFETCH     ACCESS:    4548181  HIT:     863496  MISS:    3684685  iACCESS:    2479365  iHIT:     593831  iMISS:    1885534  dACCESS:    2068816  dHIT:     269665  dMISS:    1799151  itACCESS:          0  itHIT:          0  itMISS:          0  dtACCESS:          0  dtHIT:          0  dtMISS:          0
cpu0_L2C WRITE        ACCESS:     283735  HIT:      55935  MISS:     227800  iACCESS:          0  iHIT:          0  iMISS:          0  dACCESS:     283735  dHIT:      55935  dMISS:     227800  itACCESS:          0  itHIT:          0  itMISS:          0  dtACCESS:          0  dtHIT:          0  dtMISS:          0
cpu0_L2C TRANSLATION  ACCESS:     204348  HIT:     163506  MISS:      40842  iACCESS:          0  iHIT:          0  iMISS:          0  dACCESS:          0  dHIT:          0  dMISS:          0  itACCESS:      58450  itHIT:      47181  itMISS:      11269  dtACCESS:     145898  dtHIT:     116325  dtMISS:      29573
cpu0_L2C PREFETCH  REQUESTED:    1314252  ISSUED:    1314252  CROSSED:          0  USEFUL:     408294  USELESS:     373617
cpu0_L2C AVERAGE iMISS LATENCY: 15.1874 cycles
cpu0_L2C AVERAGE dMISS LATENCY: 25.1305 cycles
cpu0_L2C AVERAGE itMISS LATENCY: 0.237179 cycles
cpu0_L2C AVERAGE dtMISS LATENCY: 0.774099 cycles
cpu0_L2C PAGE CROSSINGS (TLB HIT):         0 
cpu0_L2C PAGE CROSSINGS (TLB MISS):         0 
cpu0_L2C AVERAGE MISS LATENCY: 41.3291 cycles
LLC TOTAL       ACCESS:    5594784  HIT:    4760755  MISS:     834029  iACCESS:    2518294  iHIT:    2261119  iMISS:     257175  dACCESS:    3035648  dHIT:    2487059  dMISS:     548589  itACCESS:      11269  itHIT:       4729  itMISS:       6540  dtACCESS:      29573  dtHIT:       7848  dtMISS:      21725
LLC LOAD         ACCESS:    1567135  HIT:    1370555  MISS:     196580  iACCESS:     682631  iHIT:     626670  iMISS:      55961  dACCESS:     884504  dHIT:     743885  dMISS:     140619  itACCESS:          0  itHIT:          0  itMISS:          0  dtACCESS:          0  dtHIT:          0  dtMISS:          0
LLC RFO          ACCESS:     146343  HIT:     103944  MISS:      42399  iACCESS:          0  iHIT:          0  iMISS:          0  dACCESS:     146343  dHIT:     103944  dMISS:      42399  itACCESS:          0  itHIT:          0  itMISS:          0  dtACCESS:          0  dtHIT:          0  dtMISS:          0
LLC PREFETCH     ACCESS:    3582307  HIT:    3015525  MISS:     566782  iACCESS:    1835663  iHIT:    1634449  iMISS:     201214  dACCESS:    1746644  dHIT:    1381076  dMISS:     365568  itACCESS:          0  itHIT:          0  itMISS:          0  dtACCESS:          0  dtHIT:          0  dtMISS:          0
LLC WRITE        ACCESS:     258157  HIT:     258154  MISS:          3  iACCESS:          0  iHIT:          0  iMISS:          0  dACCESS:     258157  dHIT:     258154  dMISS:          3  itACCESS:          0  itHIT:          0  itMISS:          0  dtACCESS:          0  dtHIT:          0  dtMISS:          0
LLC TRANSLATION  ACCESS:      40842  HIT:      12577  MISS:      28265  iACCESS:          0  iHIT:          0  iMISS:          0  dACCESS:          0  dHIT:          0  dMISS:          0  itACCESS:      11269  itHIT:       4729  itMISS:       6540  dtACCESS:      29573  dtHIT:       7848  dtMISS:      21725
LLC PREFETCH  REQUESTED:          0  ISSUED:          0  CROSSED:          0  USEFUL:          0  USELESS:          0
LLC AVERAGE iMISS LATENCY: 44.9466 cycles
LLC AVERAGE dMISS LATENCY: 106.49 cycles
LLC AVERAGE itMISS LATENCY: 1.34788 cycles
LLC AVERAGE dtMISS LATENCY: 4.56404 cycles
LLC PAGE CROSSINGS (TLB HIT):         0 
LLC PAGE CROSSINGS (TLB MISS):         0 
LLC AVERAGE MISS LATENCY: 157.349 cycles

PageTableWalker TOTAL       ACCESS:      85927  
PageTableWalker AVERAGE LATENCY: 4.18797 cycles
PageTableWalker TOTAL LATENCY: 359859 cycles

DRAM Statistics
Channel 0
 RQ ROW_BUFFER_HIT:     236886
  ROW_BUFFER_MISS:     597053
 AVG DBUS CONGESTED CYCLE:    3.62961
 WQ ROW_BUFFER_HIT:      23215
  ROW_BUFFER_MISS:      31686  FULL:          0

