last_page:0x200000000000000
VMEM_RES_CAP:0x100000
PAGE_SIZE:4096
LOG2_PAGE_SIZE:12
LOG2_PAGE_TABLE_SIZE:9
page_table_levels:5
WARNING: physical memory size is smaller than virtual memory size
FDiP enabled with aggresivity 16

*** ChampSim Multicore Out-of-Order Simulator ***

Warmup Instructions: 50000000
Simulation Instructions: 100000000
Number of CPUs: 1
Small page size: 4096
Large page size: 2097152

CPU 0 Bimodal branch predictor
Basic BTB sets: 1024 ways: 8 indirect buffer size: 4096 RAS size: 64
Instruction page size distrubution: 0
Loading instruction page size distribution from /home/bsc/bsc018186/scratch/itp_asplos25_AE/dump/srv425_ap.pdst
Data page size distrubution: 0
Loading data page size distribution from /home/bsc/bsc018186/scratch/itp_asplos25_AE/dump/srv425_ap.pdst
cpu0_L2C IP-based stride prefetcher
cpu0_L1D next line prefetcher
cpu0_STLB using iTP with max lru@8
cpu0_STLB using iTP with instr@0 and data@2
Init sat counter with 3 bits (max:50).
cpu0_L1I next line prefetcher
Off-chip DRAM Size: 4 GiB Channels: 1 Width: 64-bit Data Rate: 3200 MT/s
Heartbeat CPU 0 instructions: 10000002 cycles: 2500293 heartbeat IPC: 3.99954 cumulative IPC: 3.99954 (Simulation time: 0 hr 0 min 38 sec) 
Heartbeat CPU 0 instructions: 20000001 cycles: 5000295 heartbeat IPC: 4 cumulative IPC: 3.99977 (Simulation time: 0 hr 1 min 18 sec) 
Heartbeat CPU 0 instructions: 30000003 cycles: 7500329 heartbeat IPC: 3.99995 cumulative IPC: 3.99983 (Simulation time: 0 hr 1 min 59 sec) 
Heartbeat CPU 0 instructions: 40000003 cycles: 10000362 heartbeat IPC: 3.99995 cumulative IPC: 3.99986 (Simulation time: 0 hr 2 min 40 sec) 
Heartbeat CPU 0 instructions: 50000003 cycles: 12500362 heartbeat IPC: 4 cumulative IPC: 3.99989 (Simulation time: 0 hr 3 min 21 sec) 
Warmup finished CPU 0 instructions: 50000003 cycles: 12500363 cumulative IPC: 3.99989 (Simulation time: 0 hr 3 min 21 sec) 

Warmup complete CPU 0 instructions: 50000003 cycles: 12500363 (Simulation time: 0 hr 3 min 21 sec) 

Heartbeat CPU 0 instructions: 60000002 cycles: 26569224 heartbeat IPC: 0.71079 cumulative IPC: 0.71079 (Simulation time: 0 hr 4 min 24 sec) 
Heartbeat CPU 0 instructions: 70000000 cycles: 40759508 heartbeat IPC: 0.704708 cumulative IPC: 0.707736 (Simulation time: 0 hr 5 min 27 sec) 
Heartbeat CPU 0 instructions: 80000003 cycles: 54166729 heartbeat IPC: 0.745867 cumulative IPC: 0.720006 (Simulation time: 0 hr 6 min 30 sec) 
Heartbeat CPU 0 instructions: 90000001 cycles: 68390223 heartbeat IPC: 0.703062 cumulative IPC: 0.715694 (Simulation time: 0 hr 7 min 34 sec) 
Heartbeat CPU 0 instructions: 100000002 cycles: 81867246 heartbeat IPC: 0.742004 cumulative IPC: 0.720806 (Simulation time: 0 hr 8 min 36 sec) 
*** Reached end of trace: /gpfs/projects/bsc18/MN4/bsc18/romol/ChampSim/traces/qualcomm_srv/srv425_ap.champsimtrace.xz
Heartbeat CPU 0 instructions: 110000003 cycles: 96688126 heartbeat IPC: 0.674724 cumulative IPC: 0.712693 (Simulation time: 0 hr 9 min 41 sec) 
Heartbeat CPU 0 instructions: 120000000 cycles: 109653099 heartbeat IPC: 0.771309 cumulative IPC: 0.720515 (Simulation time: 0 hr 10 min 42 sec) 
Heartbeat CPU 0 instructions: 130000002 cycles: 123164858 heartbeat IPC: 0.740097 cumulative IPC: 0.722906 (Simulation time: 0 hr 11 min 45 sec) 
Heartbeat CPU 0 instructions: 140000000 cycles: 137249386 heartbeat IPC: 0.709999 cumulative IPC: 0.721449 (Simulation time: 0 hr 12 min 49 sec) 
Heartbeat CPU 0 instructions: 150000003 cycles: 150115137 heartbeat IPC: 0.777258 cumulative IPC: 0.726667 (Simulation time: 0 hr 13 min 51 sec) 
Simulation finished CPU 0 instructions: 100000000 cycles: 137614775 cumulative IPC: 0.726667 (Simulation time: 0 hr 13 min 51 sec) 

Simulation complete CPU 0 instructions: 100000000 cycles: 137614775 (Simulation time: 0 hr 13 min 51 sec) 


ChampSim completed all CPUs

Saving instructions large page distribution to /home/bsc/bsc018186/scratch/itp_asplos25_AE/dump/srv425_ap.pdst...
Saving data large page distribution to /home/bsc/bsc018186/scratch/itp_asplos25_AE/dump/srv425_ap.pdst...
=== Simulation ===
CPU 0 runs /gpfs/projects/bsc18/MN4/bsc18/romol/ChampSim/traces/qualcomm_srv/srv425_ap.champsimtrace.xz

Region of Interest Statistics

CPU 0 cumulative IPC: 0.726667 instructions: 100000000 cycles: 137614775
CPU 0 Branch Prediction Accuracy: 83.6679% MPKI: 29.2186 Average ROB Occupancy at Mispredict: 12.6773
Branch type MPKI
BRANCH_DIRECT_JUMP: 0.989561
BRANCH_INDIRECT: 15.0836
BRANCH_CONDITIONAL: 9.55683
BRANCH_DIRECT_CALL: 1.78353
BRANCH_INDIRECT_CALL: 0.507761
BRANCH_RETURN: 1.29739

Instructions large pages: 0
Instructions small pages: 1003
Large page distribution for instructions: 0%

Data large pages: 0
Data small pages: 10167
Large page distribution for data: 0%

cpu0_L1I TOTAL       ACCESS:   35159820  HIT:   26795979  MISS:    8363841  iACCESS:   35159820  iHIT:   26795979  iMISS:    8363841  dACCESS:          0  dHIT:          0  dMISS:          0  itACCESS:          0  itHIT:          0  itMISS:          0  dtACCESS:          0  dtHIT:          0  dtMISS:          0
cpu0_L1I LOAD         ACCESS:   10323131  HIT:    7973876  MISS:    2349255  iACCESS:   10323131  iHIT:    7973876  iMISS:    2349255  dACCESS:          0  dHIT:          0  dMISS:          0  itACCESS:          0  itHIT:          0  itMISS:          0  dtACCESS:          0  dtHIT:          0  dtMISS:          0
cpu0_L1I RFO          ACCESS:          0  HIT:          0  MISS:          0  iACCESS:          0  iHIT:          0  iMISS:          0  dACCESS:          0  dHIT:          0  dMISS:          0  itACCESS:          0  itHIT:          0  itMISS:          0  dtACCESS:          0  dtHIT:          0  dtMISS:          0
cpu0_L1I PREFETCH     ACCESS:   24836689  HIT:   18822103  MISS:    6014586  iACCESS:   24836689  iHIT:   18822103  iMISS:    6014586  dACCESS:          0  dHIT:          0  dMISS:          0  itACCESS:          0  itHIT:          0  itMISS:          0  dtACCESS:          0  dtHIT:          0  dtMISS:          0
cpu0_L1I WRITE        ACCESS:          0  HIT:          0  MISS:          0  iACCESS:          0  iHIT:          0  iMISS:          0  dACCESS:          0  dHIT:          0  dMISS:          0  itACCESS:          0  itHIT:          0  itMISS:          0  dtACCESS:          0  dtHIT:          0  dtMISS:          0
cpu0_L1I TRANSLATION  ACCESS:          0  HIT:          0  MISS:          0  iACCESS:          0  iHIT:          0  iMISS:          0  dACCESS:          0  dHIT:          0  dMISS:          0  itACCESS:          0  itHIT:          0  itMISS:          0  dtACCESS:          0  dtHIT:          0  dtMISS:          0
cpu0_L1I PREFETCH  REQUESTED:   27202060  ISSUED:   27200080  CROSSED:          0  USEFUL:    1899364  USELESS:     629087
cpu0_L1I AVERAGE iMISS LATENCY: 13.025 cycles
cpu0_L1I AVERAGE dMISS LATENCY: 0 cycles
cpu0_L1I AVERAGE itMISS LATENCY: 0 cycles
cpu0_L1I AVERAGE dtMISS LATENCY: 0 cycles
cpu0_L1I PAGE CROSSINGS (TLB HIT):         0 
cpu0_L1I PAGE CROSSINGS (TLB MISS):         0 
cpu0_L1I AVERAGE MISS LATENCY: 13.025 cycles
cpu0_ITLB TOTAL       ACCESS:   29087917  HIT:   27116771  MISS:    1971146  iACCESS:   29087917  iHIT:   27116771  iMISS:    1971146  dACCESS:          0  dHIT:          0  dMISS:          0  itACCESS:          0  itHIT:          0  itMISS:          0  dtACCESS:          0  dtHIT:          0  dtMISS:          0
cpu0_ITLB LOAD         ACCESS:   29087917  HIT:   27116771  MISS:    1971146  iACCESS:   29087917  iHIT:   27116771  iMISS:    1971146  dACCESS:          0  dHIT:          0  dMISS:          0  itACCESS:          0  itHIT:          0  itMISS:          0  dtACCESS:          0  dtHIT:          0  dtMISS:          0
cpu0_ITLB RFO          ACCESS:          0  HIT:          0  MISS:          0  iACCESS:          0  iHIT:          0  iMISS:          0  dACCESS:          0  dHIT:          0  dMISS:          0  itACCESS:          0  itHIT:          0  itMISS:          0  dtACCESS:          0  dtHIT:          0  dtMISS:          0
cpu0_ITLB PREFETCH     ACCESS:          0  HIT:          0  MISS:          0  iACCESS:          0  iHIT:          0  iMISS:          0  dACCESS:          0  dHIT:          0  dMISS:          0  itACCESS:          0  itHIT:          0  itMISS:          0  dtACCESS:          0  dtHIT:          0  dtMISS:          0
cpu0_ITLB WRITE        ACCESS:          0  HIT:          0  MISS:          0  iACCESS:          0  iHIT:          0  iMISS:          0  dACCESS:          0  dHIT:          0  dMISS:          0  itACCESS:          0  itHIT:          0  itMISS:          0  dtACCESS:          0  dtHIT:          0  dtMISS:          0
cpu0_ITLB TRANSLATION  ACCESS:          0  HIT:          0  MISS:          0  iACCESS:          0  iHIT:          0  iMISS:          0  dACCESS:          0  dHIT:          0  dMISS:          0  itACCESS:          0  itHIT:          0  itMISS:          0  dtACCESS:          0  dtHIT:          0  dtMISS:          0
cpu0_ITLB PREFETCH  REQUESTED:          0  ISSUED:          0  CROSSED:          0  USEFUL:     322086  USELESS:      66356
cpu0_ITLB AVERAGE iMISS LATENCY: 1.93359 cycles
cpu0_ITLB AVERAGE dMISS LATENCY: 0 cycles
cpu0_ITLB AVERAGE itMISS LATENCY: 0 cycles
cpu0_ITLB AVERAGE dtMISS LATENCY: 0 cycles
cpu0_ITLB PAGE CROSSINGS (TLB HIT):         0 
cpu0_ITLB PAGE CROSSINGS (TLB MISS):         0 
cpu0_ITLB AVERAGE MISS LATENCY: 1.93359 cycles
cpu0_DTLB TOTAL       ACCESS:   27681919  HIT:   25658632  MISS:    2023287  iACCESS:          0  iHIT:          0  iMISS:          0  dACCESS:   27681919  dHIT:   25658632  dMISS:    2023287  itACCESS:          0  itHIT:          0  itMISS:          0  dtACCESS:          0  dtHIT:          0  dtMISS:          0
cpu0_DTLB LOAD         ACCESS:   27681919  HIT:   25658632  MISS:    2023287  iACCESS:          0  iHIT:          0  iMISS:          0  dACCESS:   27681919  dHIT:   25658632  dMISS:    2023287  itACCESS:          0  itHIT:          0  itMISS:          0  dtACCESS:          0  dtHIT:          0  dtMISS:          0
cpu0_DTLB RFO          ACCESS:          0  HIT:          0  MISS:          0  iACCESS:          0  iHIT:          0  iMISS:          0  dACCESS:          0  dHIT:          0  dMISS:          0  itACCESS:          0  itHIT:          0  itMISS:          0  dtACCESS:          0  dtHIT:          0  dtMISS:          0
cpu0_DTLB PREFETCH     ACCESS:          0  HIT:          0  MISS:          0  iACCESS:          0  iHIT:          0  iMISS:          0  dACCESS:          0  dHIT:          0  dMISS:          0  itACCESS:          0  itHIT:          0  itMISS:          0  dtACCESS:          0  dtHIT:          0  dtMISS:          0
cpu0_DTLB WRITE        ACCESS:          0  HIT:          0  MISS:          0  iACCESS:          0  iHIT:          0  iMISS:          0  dACCESS:          0  dHIT:          0  dMISS:          0  itACCESS:          0  itHIT:          0  itMISS:          0  dtACCESS:          0  dtHIT:          0  dtMISS:          0
cpu0_DTLB TRANSLATION  ACCESS:          0  HIT:          0  MISS:          0  iACCESS:          0  iHIT:          0  iMISS:          0  dACCESS:          0  dHIT:          0  dMISS:          0  itACCESS:          0  itHIT:          0  itMISS:          0  dtACCESS:          0  dtHIT:          0  dtMISS:          0
cpu0_DTLB PREFETCH  REQUESTED:          0  ISSUED:          0  CROSSED:          0  USEFUL:          0  USELESS:          0
cpu0_DTLB AVERAGE iMISS LATENCY: 0 cycles
cpu0_DTLB AVERAGE dMISS LATENCY: 11.4064 cycles
cpu0_DTLB AVERAGE itMISS LATENCY: 0 cycles
cpu0_DTLB AVERAGE dtMISS LATENCY: 0 cycles
cpu0_DTLB PAGE CROSSINGS (TLB HIT):         0 
cpu0_DTLB PAGE CROSSINGS (TLB MISS):         0 
cpu0_DTLB AVERAGE MISS LATENCY: 11.4064 cycles
cpu0_STLB TOTAL       ACCESS:    1625109  HIT:    1480559  MISS:     144550  iACCESS:     388487  iHIT:     380855  iMISS:       7632  dACCESS:    1236622  dHIT:    1099704  dMISS:     136918  itACCESS:          0  itHIT:          0  itMISS:          0  dtACCESS:          0  dtHIT:          0  dtMISS:          0
cpu0_STLB LOAD         ACCESS:    1625109  HIT:    1480559  MISS:     144550  iACCESS:     388487  iHIT:     380855  iMISS:       7632  dACCESS:    1236622  dHIT:    1099704  dMISS:     136918  itACCESS:          0  itHIT:          0  itMISS:          0  dtACCESS:          0  dtHIT:          0  dtMISS:          0
cpu0_STLB RFO          ACCESS:          0  HIT:          0  MISS:          0  iACCESS:          0  iHIT:          0  iMISS:          0  dACCESS:          0  dHIT:          0  dMISS:          0  itACCESS:          0  itHIT:          0  itMISS:          0  dtACCESS:          0  dtHIT:          0  dtMISS:          0
cpu0_STLB PREFETCH     ACCESS:          0  HIT:          0  MISS:          0  iACCESS:          0  iHIT:          0  iMISS:          0  dACCESS:          0  dHIT:          0  dMISS:          0  itACCESS:          0  itHIT:          0  itMISS:          0  dtACCESS:          0  dtHIT:          0  dtMISS:          0
cpu0_STLB WRITE        ACCESS:          0  HIT:          0  MISS:          0  iACCESS:          0  iHIT:          0  iMISS:          0  dACCESS:          0  dHIT:          0  dMISS:          0  itACCESS:          0  itHIT:          0  itMISS:          0  dtACCESS:          0  dtHIT:          0  dtMISS:          0
cpu0_STLB TRANSLATION  ACCESS:          0  HIT:          0  MISS:          0  iACCESS:          0  iHIT:          0  iMISS:          0  dACCESS:          0  dHIT:          0  dMISS:          0  itACCESS:          0  itHIT:          0  itMISS:          0  dtACCESS:          0  dtHIT:          0  dtMISS:          0
cpu0_STLB PREFETCH  REQUESTED:          0  ISSUED:          0  CROSSED:          0  USEFUL:          0  USELESS:          0
cpu0_STLB AVERAGE iMISS LATENCY: 5.51827 cycles
cpu0_STLB AVERAGE dMISS LATENCY: 91.328 cycles
cpu0_STLB AVERAGE itMISS LATENCY: 0 cycles
cpu0_STLB AVERAGE dtMISS LATENCY: 0 cycles
cpu0_STLB PAGE CROSSINGS (TLB HIT):         0 
cpu0_STLB PAGE CROSSINGS (TLB MISS):         0 
cpu0_STLB AVERAGE MISS LATENCY: 96.8462 cycles
cpu0_L1D TOTAL       ACCESS:   41348011  HIT:   37936475  MISS:    3411536  iACCESS:          0  iHIT:          0  iMISS:          0  dACCESS:   41133900  dHIT:   37921640  dMISS:    3212260  itACCESS:       9447  itHIT:       1083  itMISS:       8364  dtACCESS:     204664  dtHIT:      13752  dtMISS:     190912
cpu0_L1D LOAD         ACCESS:   18858853  HIT:   17389048  MISS:    1469805  iACCESS:          0  iHIT:          0  iMISS:          0  dACCESS:   18858853  dHIT:   17389048  dMISS:    1469805  itACCESS:          0  itHIT:          0  itMISS:          0  dtACCESS:          0  dtHIT:          0  dtMISS:          0
cpu0_L1D RFO          ACCESS:          0  HIT:          0  MISS:          0  iACCESS:          0  iHIT:          0  iMISS:          0  dACCESS:          0  dHIT:          0  dMISS:          0  itACCESS:          0  itHIT:          0  itMISS:          0  dtACCESS:          0  dtHIT:          0  dtMISS:          0
cpu0_L1D PREFETCH     ACCESS:   12085519  HIT:   10769615  MISS:    1315904  iACCESS:          0  iHIT:          0  iMISS:          0  dACCESS:   12085519  dHIT:   10769615  dMISS:    1315904  itACCESS:          0  itHIT:          0  itMISS:          0  dtACCESS:          0  dtHIT:          0  dtMISS:          0
cpu0_L1D WRITE        ACCESS:   10189528  HIT:    9762977  MISS:     426551  iACCESS:          0  iHIT:          0  iMISS:          0  dACCESS:   10189528  dHIT:    9762977  dMISS:     426551  itACCESS:          0  itHIT:          0  itMISS:          0  dtACCESS:          0  dtHIT:          0  dtMISS:          0
cpu0_L1D TRANSLATION  ACCESS:     214111  HIT:      14835  MISS:     199276  iACCESS:          0  iHIT:          0  iMISS:          0  dACCESS:          0  dHIT:          0  dMISS:          0  itACCESS:       9447  itHIT:       1083  itMISS:       8364  dtACCESS:     204664  dtHIT:      13752  dtMISS:     190912
cpu0_L1D PREFETCH  REQUESTED:   18858853  ISSUED:   16906057  CROSSED:          0  USEFUL:     304663  USELESS:     696620
cpu0_L1D AVERAGE iMISS LATENCY: 0 cycles
cpu0_L1D AVERAGE dMISS LATENCY: 33.1177 cycles
cpu0_L1D AVERAGE itMISS LATENCY: 0.20901 cycles
cpu0_L1D AVERAGE dtMISS LATENCY: 3.03512 cycles
cpu0_L1D PAGE CROSSINGS (TLB HIT):         0 
cpu0_L1D PAGE CROSSINGS (TLB MISS):         0 
cpu0_L1D AVERAGE MISS LATENCY: 36.3618 cycles
cpu0_L2C TOTAL       ACCESS:    6911817  HIT:    1667346  MISS:    5244471  iACCESS:    3284839  iHIT:     841205  iMISS:    2443634  dACCESS:    3435432  dHIT:     723584  dMISS:    2711848  itACCESS:       8364  itHIT:       3824  itMISS:       4540  dtACCESS:     183182  dtHIT:      98733  dtMISS:      84449
cpu0_L2C LOAD         ACCESS:    1713711  HIT:     300413  MISS:    1413298  iACCESS:     789660  iHIT:     142242  iMISS:     647418  dACCESS:     924051  dHIT:     158171  dMISS:     765880  itACCESS:          0  itHIT:          0  itMISS:          0  dtACCESS:          0  dtHIT:          0  dtMISS:          0
cpu0_L2C RFO          ACCESS:     157579  HIT:      55395  MISS:     102184  iACCESS:          0  iHIT:          0  iMISS:          0  dACCESS:     157579  dHIT:      55395  dMISS:     102184  itACCESS:          0  itHIT:          0  itMISS:          0  dtACCESS:          0  dtHIT:          0  dtMISS:          0
cpu0_L2C PREFETCH     ACCESS:    4566590  HIT:    1066177  MISS:    3500413  iACCESS:    2495179  iHIT:     698963  iMISS:    1796216  dACCESS:    2071411  dHIT:     367214  dMISS:    1704197  itACCESS:          0  itHIT:          0  itMISS:          0  dtACCESS:          0  dtHIT:          0  dtMISS:          0
cpu0_L2C WRITE        ACCESS:     282391  HIT:     142804  MISS:     139587  iACCESS:          0  iHIT:          0  iMISS:          0  dACCESS:     282391  dHIT:     142804  dMISS:     139587  itACCESS:          0  itHIT:          0  itMISS:          0  dtACCESS:          0  dtHIT:          0  dtMISS:          0
cpu0_L2C TRANSLATION  ACCESS:     191546  HIT:     102557  MISS:      88989  iACCESS:          0  iHIT:          0  iMISS:          0  dACCESS:          0  dHIT:          0  dMISS:          0  itACCESS:       8364  itHIT:       3824  itMISS:       4540  dtACCESS:     183182  dtHIT:      98733  dtMISS:      84449
cpu0_L2C PREFETCH  REQUESTED:    1318256  ISSUED:    1318256  CROSSED:          0  USEFUL:     386388  USELESS:     358652
cpu0_L2C AVERAGE iMISS LATENCY: 15.096 cycles
cpu0_L2C AVERAGE dMISS LATENCY: 24.3663 cycles
cpu0_L2C AVERAGE itMISS LATENCY: 0.120711 cycles
cpu0_L2C AVERAGE dtMISS LATENCY: 1.64203 cycles
cpu0_L2C PAGE CROSSINGS (TLB HIT):         0 
cpu0_L2C PAGE CROSSINGS (TLB MISS):         0 
cpu0_L2C AVERAGE MISS LATENCY: 41.2249 cycles
LLC TOTAL       ACCESS:    5131963  HIT:    4367209  MISS:     764754  iACCESS:    2395603  iHIT:    2172578  iMISS:     223025  dACCESS:    2647371  dHIT:    2148694  dMISS:     498677  itACCESS:       4540  itHIT:       1444  itMISS:       3096  dtACCESS:      84449  dtHIT:      44493  dtMISS:      39956
LLC LOAD         ACCESS:    1411661  HIT:    1241437  MISS:     170224  iACCESS:     646301  iHIT:     599754  iMISS:      46547  dACCESS:     765360  dHIT:     641683  dMISS:     123677  itACCESS:          0  itHIT:          0  itMISS:          0  dtACCESS:          0  dtHIT:          0  dtMISS:          0
LLC RFO          ACCESS:     102179  HIT:      65441  MISS:      36738  iACCESS:          0  iHIT:          0  iMISS:          0  dACCESS:     102179  dHIT:      65441  dMISS:      36738  itACCESS:          0  itHIT:          0  itMISS:          0  dtACCESS:          0  dtHIT:          0  dtMISS:          0
LLC PREFETCH     ACCESS:    3401354  HIT:    2895726  MISS:     505628  iACCESS:    1749302  iHIT:    1572824  iMISS:     176478  dACCESS:    1652052  dHIT:    1322902  dMISS:     329150  itACCESS:          0  itHIT:          0  itMISS:          0  dtACCESS:          0  dtHIT:          0  dtMISS:          0
LLC WRITE        ACCESS:     127780  HIT:     118668  MISS:       9112  iACCESS:          0  iHIT:          0  iMISS:          0  dACCESS:     127780  dHIT:     118668  dMISS:       9112  itACCESS:          0  itHIT:          0  itMISS:          0  dtACCESS:          0  dtHIT:          0  dtMISS:          0
LLC TRANSLATION  ACCESS:      88989  HIT:      45937  MISS:      43052  iACCESS:          0  iHIT:          0  iMISS:          0  dACCESS:          0  dHIT:          0  dMISS:          0  itACCESS:       4540  itHIT:       1444  itMISS:       3096  dtACCESS:      84449  dtHIT:      44493  dtMISS:      39956
LLC PREFETCH  REQUESTED:          0  ISSUED:          0  CROSSED:          0  USEFUL:          0  USELESS:          0
LLC AVERAGE iMISS LATENCY: 43.1058 cycles
LLC AVERAGE dMISS LATENCY: 103.419 cycles
LLC AVERAGE itMISS LATENCY: 0.711283 cycles
LLC AVERAGE dtMISS LATENCY: 9.11067 cycles
LLC PAGE CROSSINGS (TLB HIT):         0 
LLC PAGE CROSSINGS (TLB MISS):         0 
LLC AVERAGE MISS LATENCY: 156.347 cycles

PageTableWalker TOTAL       ACCESS:      70658  
PageTableWalker AVERAGE LATENCY: 5.21258 cycles
PageTableWalker TOTAL LATENCY: 368310 cycles

DRAM Statistics
Channel 0
 RQ ROW_BUFFER_HIT:     206292
  ROW_BUFFER_MISS:     549300
 AVG DBUS CONGESTED CYCLE:    3.62768
 WQ ROW_BUFFER_HIT:      14743
  ROW_BUFFER_MISS:      20365  FULL:          0

