last_page:0x200000000000000
VMEM_RES_CAP:0x100000
PAGE_SIZE:4096
LOG2_PAGE_SIZE:12
LOG2_PAGE_TABLE_SIZE:9
page_table_levels:5
WARNING: physical memory size is smaller than virtual memory size
FDiP enabled with aggresivity 16

*** ChampSim Multicore Out-of-Order Simulator ***

Warmup Instructions: 50000000
Simulation Instructions: 100000000
Number of CPUs: 1
Small page size: 4096
Large page size: 2097152

CPU 0 Bimodal branch predictor
Basic BTB sets: 1024 ways: 8 indirect buffer size: 4096 RAS size: 64
Instruction page size distrubution: 0
Loading instruction page size distribution from /home/bsc/bsc018186/scratch/itp_asplos25_AE/dump/srv420_ap.pdst
Data page size distrubution: 0
Loading data page size distribution from /home/bsc/bsc018186/scratch/itp_asplos25_AE/dump/srv420_ap.pdst
cpu0_L2C IP-based stride prefetcher
cpu0_L1D next line prefetcher
CHiRPing...
cpu0_L1I next line prefetcher
Off-chip DRAM Size: 4 GiB Channels: 1 Width: 64-bit Data Rate: 3200 MT/s
Heartbeat CPU 0 instructions: 10000001 cycles: 2500110 heartbeat IPC: 3.99983 cumulative IPC: 3.99983 (Simulation time: 0 hr 0 min 39 sec) 
Heartbeat CPU 0 instructions: 20000002 cycles: 5000162 heartbeat IPC: 3.99992 cumulative IPC: 3.99988 (Simulation time: 0 hr 1 min 20 sec) 
Heartbeat CPU 0 instructions: 30000002 cycles: 7500179 heartbeat IPC: 3.99998 cumulative IPC: 3.99991 (Simulation time: 0 hr 2 min 2 sec) 
Heartbeat CPU 0 instructions: 40000002 cycles: 10000198 heartbeat IPC: 3.99997 cumulative IPC: 3.99993 (Simulation time: 0 hr 2 min 44 sec) 
Heartbeat CPU 0 instructions: 50000003 cycles: 12500254 heartbeat IPC: 3.99992 cumulative IPC: 3.99992 (Simulation time: 0 hr 3 min 25 sec) 
Warmup finished CPU 0 instructions: 50000003 cycles: 12500255 cumulative IPC: 3.99992 (Simulation time: 0 hr 3 min 25 sec) 

Warmup complete CPU 0 instructions: 50000003 cycles: 12500255 (Simulation time: 0 hr 3 min 25 sec) 

Heartbeat CPU 0 instructions: 60000002 cycles: 26738131 heartbeat IPC: 0.702352 cumulative IPC: 0.702352 (Simulation time: 0 hr 4 min 30 sec) 
Heartbeat CPU 0 instructions: 70000003 cycles: 40690138 heartbeat IPC: 0.716743 cumulative IPC: 0.709475 (Simulation time: 0 hr 5 min 35 sec) 
Heartbeat CPU 0 instructions: 80000000 cycles: 54285378 heartbeat IPC: 0.735552 cumulative IPC: 0.717959 (Simulation time: 0 hr 6 min 39 sec) 
Heartbeat CPU 0 instructions: 90000001 cycles: 68526367 heartbeat IPC: 0.702199 cumulative IPC: 0.713953 (Simulation time: 0 hr 7 min 43 sec) 
Heartbeat CPU 0 instructions: 100000000 cycles: 82541601 heartbeat IPC: 0.71351 cumulative IPC: 0.713865 (Simulation time: 0 hr 8 min 48 sec) 
*** Reached end of trace: /gpfs/projects/bsc18/MN4/bsc18/romol/ChampSim/traces/qualcomm_srv/srv420_ap.champsimtrace.xz
Heartbeat CPU 0 instructions: 110000001 cycles: 96702420 heartbeat IPC: 0.706174 cumulative IPC: 0.712571 (Simulation time: 0 hr 9 min 52 sec) 
Heartbeat CPU 0 instructions: 120000002 cycles: 110747821 heartbeat IPC: 0.711977 cumulative IPC: 0.712486 (Simulation time: 0 hr 10 min 56 sec) 
Heartbeat CPU 0 instructions: 130000001 cycles: 124540529 heartbeat IPC: 0.725021 cumulative IPC: 0.714029 (Simulation time: 0 hr 11 min 59 sec) 
Heartbeat CPU 0 instructions: 140000001 cycles: 138423057 heartbeat IPC: 0.72033 cumulative IPC: 0.714724 (Simulation time: 0 hr 13 min 1 sec) 
Heartbeat CPU 0 instructions: 150000001 cycles: 152181791 heartbeat IPC: 0.726812 cumulative IPC: 0.715915 (Simulation time: 0 hr 14 min 1 sec) 
Simulation finished CPU 0 instructions: 100000003 cycles: 139681538 cumulative IPC: 0.715915 (Simulation time: 0 hr 14 min 1 sec) 

Simulation complete CPU 0 instructions: 100000003 cycles: 139681538 (Simulation time: 0 hr 14 min 1 sec) 


ChampSim completed all CPUs

Saving instructions large page distribution to /home/bsc/bsc018186/scratch/itp_asplos25_AE/dump/srv420_ap.pdst...
Saving data large page distribution to /home/bsc/bsc018186/scratch/itp_asplos25_AE/dump/srv420_ap.pdst...
=== Simulation ===
CPU 0 runs /gpfs/projects/bsc18/MN4/bsc18/romol/ChampSim/traces/qualcomm_srv/srv420_ap.champsimtrace.xz

Region of Interest Statistics

CPU 0 cumulative IPC: 0.715915 instructions: 100000003 cycles: 139681538
CPU 0 Branch Prediction Accuracy: 83.3428% MPKI: 29.8783 Average ROB Occupancy at Mispredict: 12.3233
Branch type MPKI
BRANCH_DIRECT_JUMP: 0.96063
BRANCH_INDIRECT: 15.505
BRANCH_CONDITIONAL: 9.75105
BRANCH_DIRECT_CALL: 1.83375
BRANCH_INDIRECT_CALL: 0.49639
BRANCH_RETURN: 1.33146

Instructions large pages: 0
Instructions small pages: 9814
Large page distribution for instructions: 0%

Data large pages: 0
Data small pages: 8973
Large page distribution for data: 0%

cpu0_L1I TOTAL       ACCESS:   35013123  HIT:   26540469  MISS:    8472654  iACCESS:   35013123  iHIT:   26540469  iMISS:    8472654  dACCESS:          0  dHIT:          0  dMISS:          0  itACCESS:          0  itHIT:          0  itMISS:          0  dtACCESS:          0  dtHIT:          0  dtMISS:          0
cpu0_L1I LOAD         ACCESS:   10204079  HIT:    7837963  MISS:    2366116  iACCESS:   10204079  iHIT:    7837963  iMISS:    2366116  dACCESS:          0  dHIT:          0  dMISS:          0  itACCESS:          0  itHIT:          0  itMISS:          0  dtACCESS:          0  dtHIT:          0  dtMISS:          0
cpu0_L1I RFO          ACCESS:          0  HIT:          0  MISS:          0  iACCESS:          0  iHIT:          0  iMISS:          0  dACCESS:          0  dHIT:          0  dMISS:          0  itACCESS:          0  itHIT:          0  itMISS:          0  dtACCESS:          0  dtHIT:          0  dtMISS:          0
cpu0_L1I PREFETCH     ACCESS:   24809044  HIT:   18702506  MISS:    6106538  iACCESS:   24809044  iHIT:   18702506  iMISS:    6106538  dACCESS:          0  dHIT:          0  dMISS:          0  itACCESS:          0  itHIT:          0  itMISS:          0  dtACCESS:          0  dtHIT:          0  dtMISS:          0
cpu0_L1I WRITE        ACCESS:          0  HIT:          0  MISS:          0  iACCESS:          0  iHIT:          0  iMISS:          0  dACCESS:          0  dHIT:          0  dMISS:          0  itACCESS:          0  itHIT:          0  itMISS:          0  dtACCESS:          0  dtHIT:          0  dtMISS:          0
cpu0_L1I TRANSLATION  ACCESS:          0  HIT:          0  MISS:          0  iACCESS:          0  iHIT:          0  iMISS:          0  dACCESS:          0  dHIT:          0  dMISS:          0  itACCESS:          0  itHIT:          0  itMISS:          0  dtACCESS:          0  dtHIT:          0  dtMISS:          0
cpu0_L1I PREFETCH  REQUESTED:   27079530  ISSUED:   27077778  CROSSED:          0  USEFUL:    1938652  USELESS:     635316
cpu0_L1I AVERAGE iMISS LATENCY: 13.1496 cycles
cpu0_L1I AVERAGE dMISS LATENCY: 0 cycles
cpu0_L1I AVERAGE itMISS LATENCY: 0 cycles
cpu0_L1I AVERAGE dtMISS LATENCY: 0 cycles
cpu0_L1I PAGE CROSSINGS (TLB HIT):         0 
cpu0_L1I PAGE CROSSINGS (TLB MISS):         0 
cpu0_L1I AVERAGE MISS LATENCY: 13.1496 cycles
cpu0_ITLB TOTAL       ACCESS:   29004881  HIT:   27011488  MISS:    1993393  iACCESS:   29004881  iHIT:   27011488  iMISS:    1993393  dACCESS:          0  dHIT:          0  dMISS:          0  itACCESS:          0  itHIT:          0  itMISS:          0  dtACCESS:          0  dtHIT:          0  dtMISS:          0
cpu0_ITLB LOAD         ACCESS:   29004881  HIT:   27011488  MISS:    1993393  iACCESS:   29004881  iHIT:   27011488  iMISS:    1993393  dACCESS:          0  dHIT:          0  dMISS:          0  itACCESS:          0  itHIT:          0  itMISS:          0  dtACCESS:          0  dtHIT:          0  dtMISS:          0
cpu0_ITLB RFO          ACCESS:          0  HIT:          0  MISS:          0  iACCESS:          0  iHIT:          0  iMISS:          0  dACCESS:          0  dHIT:          0  dMISS:          0  itACCESS:          0  itHIT:          0  itMISS:          0  dtACCESS:          0  dtHIT:          0  dtMISS:          0
cpu0_ITLB PREFETCH     ACCESS:          0  HIT:          0  MISS:          0  iACCESS:          0  iHIT:          0  iMISS:          0  dACCESS:          0  dHIT:          0  dMISS:          0  itACCESS:          0  itHIT:          0  itMISS:          0  dtACCESS:          0  dtHIT:          0  dtMISS:          0
cpu0_ITLB WRITE        ACCESS:          0  HIT:          0  MISS:          0  iACCESS:          0  iHIT:          0  iMISS:          0  dACCESS:          0  dHIT:          0  dMISS:          0  itACCESS:          0  itHIT:          0  itMISS:          0  dtACCESS:          0  dtHIT:          0  dtMISS:          0
cpu0_ITLB TRANSLATION  ACCESS:          0  HIT:          0  MISS:          0  iACCESS:          0  iHIT:          0  iMISS:          0  dACCESS:          0  dHIT:          0  dMISS:          0  itACCESS:          0  itHIT:          0  itMISS:          0  dtACCESS:          0  dtHIT:          0  dtMISS:          0
cpu0_ITLB PREFETCH  REQUESTED:          0  ISSUED:          0  CROSSED:          0  USEFUL:     325811  USELESS:      62652
cpu0_ITLB AVERAGE iMISS LATENCY: 2.86105 cycles
cpu0_ITLB AVERAGE dMISS LATENCY: 0 cycles
cpu0_ITLB AVERAGE itMISS LATENCY: 0 cycles
cpu0_ITLB AVERAGE dtMISS LATENCY: 0 cycles
cpu0_ITLB PAGE CROSSINGS (TLB HIT):         0 
cpu0_ITLB PAGE CROSSINGS (TLB MISS):         0 
cpu0_ITLB AVERAGE MISS LATENCY: 2.86105 cycles
cpu0_DTLB TOTAL       ACCESS:   27729741  HIT:   25683909  MISS:    2045832  iACCESS:          0  iHIT:          0  iMISS:          0  dACCESS:   27729741  dHIT:   25683909  dMISS:    2045832  itACCESS:          0  itHIT:          0  itMISS:          0  dtACCESS:          0  dtHIT:          0  dtMISS:          0
cpu0_DTLB LOAD         ACCESS:   27729741  HIT:   25683909  MISS:    2045832  iACCESS:          0  iHIT:          0  iMISS:          0  dACCESS:   27729741  dHIT:   25683909  dMISS:    2045832  itACCESS:          0  itHIT:          0  itMISS:          0  dtACCESS:          0  dtHIT:          0  dtMISS:          0
cpu0_DTLB RFO          ACCESS:          0  HIT:          0  MISS:          0  iACCESS:          0  iHIT:          0  iMISS:          0  dACCESS:          0  dHIT:          0  dMISS:          0  itACCESS:          0  itHIT:          0  itMISS:          0  dtACCESS:          0  dtHIT:          0  dtMISS:          0
cpu0_DTLB PREFETCH     ACCESS:          0  HIT:          0  MISS:          0  iACCESS:          0  iHIT:          0  iMISS:          0  dACCESS:          0  dHIT:          0  dMISS:          0  itACCESS:          0  itHIT:          0  itMISS:          0  dtACCESS:          0  dtHIT:          0  dtMISS:          0
cpu0_DTLB WRITE        ACCESS:          0  HIT:          0  MISS:          0  iACCESS:          0  iHIT:          0  iMISS:          0  dACCESS:          0  dHIT:          0  dMISS:          0  itACCESS:          0  itHIT:          0  itMISS:          0  dtACCESS:          0  dtHIT:          0  dtMISS:          0
cpu0_DTLB TRANSLATION  ACCESS:          0  HIT:          0  MISS:          0  iACCESS:          0  iHIT:          0  iMISS:          0  dACCESS:          0  dHIT:          0  dMISS:          0  itACCESS:          0  itHIT:          0  itMISS:          0  dtACCESS:          0  dtHIT:          0  dtMISS:          0
cpu0_DTLB PREFETCH  REQUESTED:          0  ISSUED:          0  CROSSED:          0  USEFUL:          0  USELESS:          0
cpu0_DTLB AVERAGE iMISS LATENCY: 0 cycles
cpu0_DTLB AVERAGE dMISS LATENCY: 9.52182 cycles
cpu0_DTLB AVERAGE itMISS LATENCY: 0 cycles
cpu0_DTLB AVERAGE dtMISS LATENCY: 0 cycles
cpu0_DTLB PAGE CROSSINGS (TLB HIT):         0 
cpu0_DTLB PAGE CROSSINGS (TLB MISS):         0 
cpu0_DTLB AVERAGE MISS LATENCY: 9.52182 cycles
cpu0_STLB TOTAL       ACCESS:    1555747  HIT:    1393434  MISS:     162313  iACCESS:     388498  iHIT:     331817  iMISS:      56681  dACCESS:    1167249  dHIT:    1061617  dMISS:     105632  itACCESS:          0  itHIT:          0  itMISS:          0  dtACCESS:          0  dtHIT:          0  dtMISS:          0
cpu0_STLB LOAD         ACCESS:    1555747  HIT:    1393434  MISS:     162313  iACCESS:     388498  iHIT:     331817  iMISS:      56681  dACCESS:    1167249  dHIT:    1061617  dMISS:     105632  itACCESS:          0  itHIT:          0  itMISS:          0  dtACCESS:          0  dtHIT:          0  dtMISS:          0
cpu0_STLB RFO          ACCESS:          0  HIT:          0  MISS:          0  iACCESS:          0  iHIT:          0  iMISS:          0  dACCESS:          0  dHIT:          0  dMISS:          0  itACCESS:          0  itHIT:          0  itMISS:          0  dtACCESS:          0  dtHIT:          0  dtMISS:          0
cpu0_STLB PREFETCH     ACCESS:          0  HIT:          0  MISS:          0  iACCESS:          0  iHIT:          0  iMISS:          0  dACCESS:          0  dHIT:          0  dMISS:          0  itACCESS:          0  itHIT:          0  itMISS:          0  dtACCESS:          0  dtHIT:          0  dtMISS:          0
cpu0_STLB WRITE        ACCESS:          0  HIT:          0  MISS:          0  iACCESS:          0  iHIT:          0  iMISS:          0  dACCESS:          0  dHIT:          0  dMISS:          0  itACCESS:          0  itHIT:          0  itMISS:          0  dtACCESS:          0  dtHIT:          0  dtMISS:          0
cpu0_STLB TRANSLATION  ACCESS:          0  HIT:          0  MISS:          0  iACCESS:          0  iHIT:          0  iMISS:          0  dACCESS:          0  dHIT:          0  dMISS:          0  itACCESS:          0  itHIT:          0  itMISS:          0  dtACCESS:          0  dtHIT:          0  dtMISS:          0
cpu0_STLB PREFETCH  REQUESTED:          0  ISSUED:          0  CROSSED:          0  USEFUL:          0  USELESS:          0
cpu0_STLB AVERAGE iMISS LATENCY: 16.2577 cycles
cpu0_STLB AVERAGE dMISS LATENCY: 62.659 cycles
cpu0_STLB AVERAGE itMISS LATENCY: 0 cycles
cpu0_STLB AVERAGE dtMISS LATENCY: 0 cycles
cpu0_STLB PAGE CROSSINGS (TLB HIT):         0 
cpu0_STLB PAGE CROSSINGS (TLB MISS):         0 
cpu0_STLB AVERAGE MISS LATENCY: 78.9167 cycles
cpu0_L1D TOTAL       ACCESS:   41409450  HIT:   37847790  MISS:    3561660  iACCESS:          0  iHIT:          0  iMISS:          0  dACCESS:   41183308  dHIT:   37828840  dMISS:    3354468  itACCESS:      61436  itHIT:       9199  itMISS:      52237  dtACCESS:     164706  dtHIT:       9751  dtMISS:     154955
cpu0_L1D LOAD         ACCESS:   18955147  HIT:   17420499  MISS:    1534648  iACCESS:          0  iHIT:          0  iMISS:          0  dACCESS:   18955147  dHIT:   17420499  dMISS:    1534648  itACCESS:          0  itHIT:          0  itMISS:          0  dtACCESS:          0  dtHIT:          0  dtMISS:          0
cpu0_L1D RFO          ACCESS:          0  HIT:          0  MISS:          0  iACCESS:          0  iHIT:          0  iMISS:          0  dACCESS:          0  dHIT:          0  dMISS:          0  itACCESS:          0  itHIT:          0  itMISS:          0  dtACCESS:          0  dtHIT:          0  dtMISS:          0
cpu0_L1D PREFETCH     ACCESS:   12111907  HIT:   10717742  MISS:    1394165  iACCESS:          0  iHIT:          0  iMISS:          0  dACCESS:   12111907  dHIT:   10717742  dMISS:    1394165  itACCESS:          0  itHIT:          0  itMISS:          0  dtACCESS:          0  dtHIT:          0  dtMISS:          0
cpu0_L1D WRITE        ACCESS:   10116254  HIT:    9690599  MISS:     425655  iACCESS:          0  iHIT:          0  iMISS:          0  dACCESS:   10116254  dHIT:    9690599  dMISS:     425655  itACCESS:          0  itHIT:          0  itMISS:          0  dtACCESS:          0  dtHIT:          0  dtMISS:          0
cpu0_L1D TRANSLATION  ACCESS:     226142  HIT:      18950  MISS:     207192  iACCESS:          0  iHIT:          0  iMISS:          0  dACCESS:          0  dHIT:          0  dMISS:          0  itACCESS:      61436  itHIT:       9199  itMISS:      52237  dtACCESS:     164706  dtHIT:       9751  dtMISS:     154955
cpu0_L1D PREFETCH  REQUESTED:   18955147  ISSUED:   16894302  CROSSED:          0  USEFUL:     309782  USELESS:     710721
cpu0_L1D AVERAGE iMISS LATENCY: 0 cycles
cpu0_L1D AVERAGE dMISS LATENCY: 32.3882 cycles
cpu0_L1D AVERAGE itMISS LATENCY: 0.603725 cycles
cpu0_L1D AVERAGE dtMISS LATENCY: 2.21834 cycles
cpu0_L1D PAGE CROSSINGS (TLB HIT):         0 
cpu0_L1D PAGE CROSSINGS (TLB MISS):         0 
cpu0_L1D AVERAGE MISS LATENCY: 35.2103 cycles
cpu0_L2C TOTAL       ACCESS:    7042941  HIT:    1734115  MISS:    5308826  iACCESS:    3329588  iHIT:     880556  iMISS:    2449032  dACCESS:    3521136  dHIT:     737186  dMISS:    2783950  itACCESS:      52237  itHIT:      38989  itMISS:      13248  dtACCESS:     139980  dtHIT:      77384  dtMISS:      62596
cpu0_L2C LOAD         ACCESS:    1738612  HIT:     315864  MISS:    1422748  iACCESS:     794301  iHIT:     152702  iMISS:     641599  dACCESS:     944311  dHIT:     163162  dMISS:     781149  itACCESS:          0  itHIT:          0  itMISS:          0  dtACCESS:          0  dtHIT:          0  dtMISS:          0
cpu0_L2C RFO          ACCESS:     156189  HIT:      54936  MISS:     101253  iACCESS:          0  iHIT:          0  iMISS:          0  dACCESS:     156189  dHIT:      54936  dMISS:     101253  itACCESS:          0  itHIT:          0  itMISS:          0  dtACCESS:          0  dtHIT:          0  dtMISS:          0
cpu0_L2C PREFETCH     ACCESS:    4669736  HIT:    1098747  MISS:    3570989  iACCESS:    2535287  iHIT:     727854  iMISS:    1807433  dACCESS:    2134449  dHIT:     370893  dMISS:    1763556  itACCESS:          0  itHIT:          0  itMISS:          0  dtACCESS:          0  dtHIT:          0  dtMISS:          0
cpu0_L2C WRITE        ACCESS:     286187  HIT:     148195  MISS:     137992  iACCESS:          0  iHIT:          0  iMISS:          0  dACCESS:     286187  dHIT:     148195  dMISS:     137992  itACCESS:          0  itHIT:          0  itMISS:          0  dtACCESS:          0  dtHIT:          0  dtMISS:          0
cpu0_L2C TRANSLATION  ACCESS:     192217  HIT:     116373  MISS:      75844  iACCESS:          0  iHIT:          0  iMISS:          0  dACCESS:          0  dHIT:          0  dMISS:          0  itACCESS:      52237  itHIT:      38989  itMISS:      13248  dtACCESS:     139980  dtHIT:      77384  dtMISS:      62596
cpu0_L2C PREFETCH  REQUESTED:    1404293  ISSUED:    1404293  CROSSED:          0  USEFUL:     408437  USELESS:     380214
cpu0_L2C AVERAGE iMISS LATENCY: 15.1107 cycles
cpu0_L2C AVERAGE dMISS LATENCY: 25.1053 cycles
cpu0_L2C AVERAGE itMISS LATENCY: 0.313767 cycles
cpu0_L2C AVERAGE dtMISS LATENCY: 1.23754 cycles
cpu0_L2C PAGE CROSSINGS (TLB HIT):         0 
cpu0_L2C PAGE CROSSINGS (TLB MISS):         0 
cpu0_L2C AVERAGE MISS LATENCY: 41.7673 cycles
LLC TOTAL       ACCESS:    5189006  HIT:    4401511  MISS:     787495  iACCESS:    2392275  iHIT:    2159924  iMISS:     232351  dACCESS:    2720887  dHIT:    2203997  dMISS:     516890  itACCESS:      13248  itHIT:       5091  itMISS:       8157  dtACCESS:      62596  dtHIT:      32499  dtMISS:      30097
LLC LOAD         ACCESS:    1420998  HIT:    1248119  MISS:     172879  iACCESS:     640244  iHIT:     591482  iMISS:      48762  dACCESS:     780754  dHIT:     656637  dMISS:     124117  itACCESS:          0  itHIT:          0  itMISS:          0  dtACCESS:          0  dtHIT:          0  dtMISS:          0
LLC RFO          ACCESS:     101250  HIT:      65735  MISS:      35515  iACCESS:          0  iHIT:          0  iMISS:          0  dACCESS:     101250  dHIT:      65735  dMISS:      35515  itACCESS:          0  itHIT:          0  itMISS:          0  dtACCESS:          0  dtHIT:          0  dtMISS:          0
LLC PREFETCH     ACCESS:    3462882  HIT:    2930643  MISS:     532239  iACCESS:    1752031  iHIT:    1568442  iMISS:     183589  dACCESS:    1710851  dHIT:    1362201  dMISS:     348650  itACCESS:          0  itHIT:          0  itMISS:          0  dtACCESS:          0  dtHIT:          0  dtMISS:          0
LLC WRITE        ACCESS:     128032  HIT:     119424  MISS:       8608  iACCESS:          0  iHIT:          0  iMISS:          0  dACCESS:     128032  dHIT:     119424  dMISS:       8608  itACCESS:          0  itHIT:          0  itMISS:          0  dtACCESS:          0  dtHIT:          0  dtMISS:          0
LLC TRANSLATION  ACCESS:      75844  HIT:      37590  MISS:      38254  iACCESS:          0  iHIT:          0  iMISS:          0  dACCESS:          0  dHIT:          0  dMISS:          0  itACCESS:      13248  itHIT:       5091  itMISS:       8157  dtACCESS:      62596  dtHIT:      32499  dtMISS:      30097
LLC PREFETCH  REQUESTED:          0  ISSUED:          0  CROSSED:          0  USEFUL:          0  USELESS:          0
LLC AVERAGE iMISS LATENCY: 43.2637 cycles
LLC AVERAGE dMISS LATENCY: 105.663 cycles
LLC AVERAGE itMISS LATENCY: 1.78589 cycles
LLC AVERAGE dtMISS LATENCY: 6.79512 cycles
LLC PAGE CROSSINGS (TLB HIT):         0 
LLC PAGE CROSSINGS (TLB MISS):         0 
LLC AVERAGE MISS LATENCY: 157.507 cycles

PageTableWalker TOTAL       ACCESS:      82322  
PageTableWalker AVERAGE LATENCY: 4.38781 cycles
PageTableWalker TOTAL LATENCY: 361213 cycles

DRAM Statistics
Channel 0
 RQ ROW_BUFFER_HIT:     206692
  ROW_BUFFER_MISS:     572169
 AVG DBUS CONGESTED CYCLE:    3.62039
 WQ ROW_BUFFER_HIT:      14528
  ROW_BUFFER_MISS:      20064  FULL:          0

