last_page:0x200000000000000
VMEM_RES_CAP:0x100000
PAGE_SIZE:4096
LOG2_PAGE_SIZE:12
LOG2_PAGE_TABLE_SIZE:9
page_table_levels:5
WARNING: physical memory size is smaller than virtual memory size
FDiP enabled with aggresivity 16

*** ChampSim Multicore Out-of-Order Simulator ***

Warmup Instructions: 50000000
Simulation Instructions: 100000000
Number of CPUs: 1
Small page size: 4096
Large page size: 2097152

CPU 0 Bimodal branch predictor
Basic BTB sets: 1024 ways: 8 indirect buffer size: 4096 RAS size: 64
Instruction page size distrubution: 0
Loading instruction page size distribution from /home/bsc/bsc018186/scratch/itp_asplos25_AE/dump/srv426_ap.pdst
Data page size distrubution: 0
Loading data page size distribution from /home/bsc/bsc018186/scratch/itp_asplos25_AE/dump/srv426_ap.pdst
cpu0_L2C IP-based stride prefetcher
cpu0_L1D next line prefetcher
cpu0_L1I next line prefetcher
Off-chip DRAM Size: 4 GiB Channels: 1 Width: 64-bit Data Rate: 3200 MT/s
Heartbeat CPU 0 instructions: 10000001 cycles: 2501316 heartbeat IPC: 3.9979 cumulative IPC: 3.9979 (Simulation time: 0 hr 0 min 34 sec) 
Heartbeat CPU 0 instructions: 20000002 cycles: 5001950 heartbeat IPC: 3.99899 cumulative IPC: 3.99845 (Simulation time: 0 hr 1 min 11 sec) 
Heartbeat CPU 0 instructions: 30000001 cycles: 7504064 heartbeat IPC: 3.99663 cumulative IPC: 3.99784 (Simulation time: 0 hr 1 min 48 sec) 
Heartbeat CPU 0 instructions: 40000002 cycles: 10008799 heartbeat IPC: 3.99244 cumulative IPC: 3.99649 (Simulation time: 0 hr 2 min 25 sec) 
Heartbeat CPU 0 instructions: 50000002 cycles: 12509089 heartbeat IPC: 3.99954 cumulative IPC: 3.9971 (Simulation time: 0 hr 3 min 2 sec) 
Warmup finished CPU 0 instructions: 50000002 cycles: 12509090 cumulative IPC: 3.9971 (Simulation time: 0 hr 3 min 2 sec) 

Warmup complete CPU 0 instructions: 50000002 cycles: 12509090 (Simulation time: 0 hr 3 min 2 sec) 

Heartbeat CPU 0 instructions: 60000000 cycles: 32969817 heartbeat IPC: 0.488742 cumulative IPC: 0.488742 (Simulation time: 0 hr 4 min 10 sec) 
Heartbeat CPU 0 instructions: 70000000 cycles: 51482887 heartbeat IPC: 0.540159 cumulative IPC: 0.513166 (Simulation time: 0 hr 5 min 15 sec) 
Heartbeat CPU 0 instructions: 80000002 cycles: 69124887 heartbeat IPC: 0.56683 cumulative IPC: 0.529888 (Simulation time: 0 hr 6 min 19 sec) 
Heartbeat CPU 0 instructions: 90000000 cycles: 87488550 heartbeat IPC: 0.544554 cumulative IPC: 0.53348 (Simulation time: 0 hr 7 min 26 sec) 
Heartbeat CPU 0 instructions: 100000002 cycles: 107135970 heartbeat IPC: 0.508973 cumulative IPC: 0.528392 (Simulation time: 0 hr 8 min 33 sec) 
*** Reached end of trace: /gpfs/projects/bsc18/MN4/bsc18/romol/ChampSim/traces/qualcomm_srv/srv426_ap.champsimtrace.xz
Heartbeat CPU 0 instructions: 110000001 cycles: 124706926 heartbeat IPC: 0.569121 cumulative IPC: 0.53477 (Simulation time: 0 hr 9 min 36 sec) 
Heartbeat CPU 0 instructions: 120000001 cycles: 143176840 heartbeat IPC: 0.541422 cumulative IPC: 0.53571 (Simulation time: 0 hr 10 min 41 sec) 
Heartbeat CPU 0 instructions: 130000000 cycles: 163291450 heartbeat IPC: 0.497152 cumulative IPC: 0.530567 (Simulation time: 0 hr 11 min 49 sec) 
Heartbeat CPU 0 instructions: 140000000 cycles: 183945918 heartbeat IPC: 0.484157 cumulative IPC: 0.524975 (Simulation time: 0 hr 12 min 58 sec) 
Heartbeat CPU 0 instructions: 150000000 cycles: 202669334 heartbeat IPC: 0.534091 cumulative IPC: 0.525873 (Simulation time: 0 hr 14 min 3 sec) 
Simulation finished CPU 0 instructions: 100000000 cycles: 190160259 cumulative IPC: 0.525873 (Simulation time: 0 hr 14 min 3 sec) 

Simulation complete CPU 0 instructions: 100000000 cycles: 190160259 (Simulation time: 0 hr 14 min 3 sec) 


ChampSim completed all CPUs

Saving instructions large page distribution to /home/bsc/bsc018186/scratch/itp_asplos25_AE/dump/srv426_ap.pdst...
Saving data large page distribution to /home/bsc/bsc018186/scratch/itp_asplos25_AE/dump/srv426_ap.pdst...
=== Simulation ===
CPU 0 runs /gpfs/projects/bsc18/MN4/bsc18/romol/ChampSim/traces/qualcomm_srv/srv426_ap.champsimtrace.xz

Region of Interest Statistics

CPU 0 cumulative IPC: 0.525873 instructions: 100000000 cycles: 190160259
CPU 0 Branch Prediction Accuracy: 81.1561% MPKI: 34.1327 Average ROB Occupancy at Mispredict: 11.5153
Branch type MPKI
BRANCH_DIRECT_JUMP: 1.08801
BRANCH_INDIRECT: 16.565
BRANCH_CONDITIONAL: 11.8408
BRANCH_DIRECT_CALL: 2.01459
BRANCH_INDIRECT_CALL: 1.12874
BRANCH_RETURN: 1.49567

Instructions large pages: 0
Instructions small pages: 1248
Large page distribution for instructions: 0%

Data large pages: 0
Data small pages: 5192
Large page distribution for data: 0%

cpu0_L1I TOTAL       ACCESS:   32212514  HIT:   25106484  MISS:    7106030  iACCESS:   32212514  iHIT:   25106484  iMISS:    7106030  dACCESS:          0  dHIT:          0  dMISS:          0  itACCESS:          0  itHIT:          0  itMISS:          0  dtACCESS:          0  dtHIT:          0  dtMISS:          0
cpu0_L1I LOAD         ACCESS:    8618058  HIT:    6656149  MISS:    1961909  iACCESS:    8618058  iHIT:    6656149  iMISS:    1961909  dACCESS:          0  dHIT:          0  dMISS:          0  itACCESS:          0  itHIT:          0  itMISS:          0  dtACCESS:          0  dtHIT:          0  dtMISS:          0
cpu0_L1I RFO          ACCESS:          0  HIT:          0  MISS:          0  iACCESS:          0  iHIT:          0  iMISS:          0  dACCESS:          0  dHIT:          0  dMISS:          0  itACCESS:          0  itHIT:          0  itMISS:          0  dtACCESS:          0  dtHIT:          0  dtMISS:          0
cpu0_L1I PREFETCH     ACCESS:   23594456  HIT:   18450335  MISS:    5144121  iACCESS:   23594456  iHIT:   18450335  iMISS:    5144121  dACCESS:          0  dHIT:          0  dMISS:          0  itACCESS:          0  itHIT:          0  itMISS:          0  dtACCESS:          0  dtHIT:          0  dtMISS:          0
cpu0_L1I WRITE        ACCESS:          0  HIT:          0  MISS:          0  iACCESS:          0  iHIT:          0  iMISS:          0  dACCESS:          0  dHIT:          0  dMISS:          0  itACCESS:          0  itHIT:          0  itMISS:          0  dtACCESS:          0  dtHIT:          0  dtMISS:          0
cpu0_L1I TRANSLATION  ACCESS:          0  HIT:          0  MISS:          0  iACCESS:          0  iHIT:          0  iMISS:          0  dACCESS:          0  dHIT:          0  dMISS:          0  itACCESS:          0  itHIT:          0  itMISS:          0  dtACCESS:          0  dtHIT:          0  dtMISS:          0
cpu0_L1I PREFETCH  REQUESTED:   25375492  ISSUED:   25373687  CROSSED:          0  USEFUL:    1650681  USELESS:     562699
cpu0_L1I AVERAGE iMISS LATENCY: 20.7322 cycles
cpu0_L1I AVERAGE dMISS LATENCY: 0 cycles
cpu0_L1I AVERAGE itMISS LATENCY: 0 cycles
cpu0_L1I AVERAGE dtMISS LATENCY: 0 cycles
cpu0_L1I PAGE CROSSINGS (TLB HIT):         0 
cpu0_L1I PAGE CROSSINGS (TLB MISS):         0 
cpu0_L1I AVERAGE MISS LATENCY: 20.7322 cycles
cpu0_ITLB TOTAL       ACCESS:   27223431  HIT:   25578916  MISS:    1644515  iACCESS:   27223431  iHIT:   25578916  iMISS:    1644515  dACCESS:          0  dHIT:          0  dMISS:          0  itACCESS:          0  itHIT:          0  itMISS:          0  dtACCESS:          0  dtHIT:          0  dtMISS:          0
cpu0_ITLB LOAD         ACCESS:   27223431  HIT:   25578916  MISS:    1644515  iACCESS:   27223431  iHIT:   25578916  iMISS:    1644515  dACCESS:          0  dHIT:          0  dMISS:          0  itACCESS:          0  itHIT:          0  itMISS:          0  dtACCESS:          0  dtHIT:          0  dtMISS:          0
cpu0_ITLB RFO          ACCESS:          0  HIT:          0  MISS:          0  iACCESS:          0  iHIT:          0  iMISS:          0  dACCESS:          0  dHIT:          0  dMISS:          0  itACCESS:          0  itHIT:          0  itMISS:          0  dtACCESS:          0  dtHIT:          0  dtMISS:          0
cpu0_ITLB PREFETCH     ACCESS:          0  HIT:          0  MISS:          0  iACCESS:          0  iHIT:          0  iMISS:          0  dACCESS:          0  dHIT:          0  dMISS:          0  itACCESS:          0  itHIT:          0  itMISS:          0  dtACCESS:          0  dtHIT:          0  dtMISS:          0
cpu0_ITLB WRITE        ACCESS:          0  HIT:          0  MISS:          0  iACCESS:          0  iHIT:          0  iMISS:          0  dACCESS:          0  dHIT:          0  dMISS:          0  itACCESS:          0  itHIT:          0  itMISS:          0  dtACCESS:          0  dtHIT:          0  dtMISS:          0
cpu0_ITLB TRANSLATION  ACCESS:          0  HIT:          0  MISS:          0  iACCESS:          0  iHIT:          0  iMISS:          0  dACCESS:          0  dHIT:          0  dMISS:          0  itACCESS:          0  itHIT:          0  itMISS:          0  dtACCESS:          0  dtHIT:          0  dtMISS:          0
cpu0_ITLB PREFETCH  REQUESTED:          0  ISSUED:          0  CROSSED:          0  USEFUL:     280539  USELESS:      51651
cpu0_ITLB AVERAGE iMISS LATENCY: 4.62109 cycles
cpu0_ITLB AVERAGE dMISS LATENCY: 0 cycles
cpu0_ITLB AVERAGE itMISS LATENCY: 0 cycles
cpu0_ITLB AVERAGE dtMISS LATENCY: 0 cycles
cpu0_ITLB PAGE CROSSINGS (TLB HIT):         0 
cpu0_ITLB PAGE CROSSINGS (TLB MISS):         0 
cpu0_ITLB AVERAGE MISS LATENCY: 4.62109 cycles
cpu0_DTLB TOTAL       ACCESS:   29350248  HIT:   27548817  MISS:    1801431  iACCESS:          0  iHIT:          0  iMISS:          0  dACCESS:   29350248  dHIT:   27548817  dMISS:    1801431  itACCESS:          0  itHIT:          0  itMISS:          0  dtACCESS:          0  dtHIT:          0  dtMISS:          0
cpu0_DTLB LOAD         ACCESS:   29350248  HIT:   27548817  MISS:    1801431  iACCESS:          0  iHIT:          0  iMISS:          0  dACCESS:   29350248  dHIT:   27548817  dMISS:    1801431  itACCESS:          0  itHIT:          0  itMISS:          0  dtACCESS:          0  dtHIT:          0  dtMISS:          0
cpu0_DTLB RFO          ACCESS:          0  HIT:          0  MISS:          0  iACCESS:          0  iHIT:          0  iMISS:          0  dACCESS:          0  dHIT:          0  dMISS:          0  itACCESS:          0  itHIT:          0  itMISS:          0  dtACCESS:          0  dtHIT:          0  dtMISS:          0
cpu0_DTLB PREFETCH     ACCESS:          0  HIT:          0  MISS:          0  iACCESS:          0  iHIT:          0  iMISS:          0  dACCESS:          0  dHIT:          0  dMISS:          0  itACCESS:          0  itHIT:          0  itMISS:          0  dtACCESS:          0  dtHIT:          0  dtMISS:          0
cpu0_DTLB WRITE        ACCESS:          0  HIT:          0  MISS:          0  iACCESS:          0  iHIT:          0  iMISS:          0  dACCESS:          0  dHIT:          0  dMISS:          0  itACCESS:          0  itHIT:          0  itMISS:          0  dtACCESS:          0  dtHIT:          0  dtMISS:          0
cpu0_DTLB TRANSLATION  ACCESS:          0  HIT:          0  MISS:          0  iACCESS:          0  iHIT:          0  iMISS:          0  dACCESS:          0  dHIT:          0  dMISS:          0  itACCESS:          0  itHIT:          0  itMISS:          0  dtACCESS:          0  dtHIT:          0  dtMISS:          0
cpu0_DTLB PREFETCH  REQUESTED:          0  ISSUED:          0  CROSSED:          0  USEFUL:          0  USELESS:          0
cpu0_DTLB AVERAGE iMISS LATENCY: 0 cycles
cpu0_DTLB AVERAGE dMISS LATENCY: 13.6687 cycles
cpu0_DTLB AVERAGE itMISS LATENCY: 0 cycles
cpu0_DTLB AVERAGE dtMISS LATENCY: 0 cycles
cpu0_DTLB PAGE CROSSINGS (TLB HIT):         0 
cpu0_DTLB PAGE CROSSINGS (TLB MISS):         0 
cpu0_DTLB AVERAGE MISS LATENCY: 13.6687 cycles
cpu0_STLB TOTAL       ACCESS:    1409294  HIT:    1186827  MISS:     222467  iACCESS:     332201  iHIT:     250986  iMISS:      81215  dACCESS:    1077093  dHIT:     935841  dMISS:     141252  itACCESS:          0  itHIT:          0  itMISS:          0  dtACCESS:          0  dtHIT:          0  dtMISS:          0
cpu0_STLB LOAD         ACCESS:    1409294  HIT:    1186827  MISS:     222467  iACCESS:     332201  iHIT:     250986  iMISS:      81215  dACCESS:    1077093  dHIT:     935841  dMISS:     141252  itACCESS:          0  itHIT:          0  itMISS:          0  dtACCESS:          0  dtHIT:          0  dtMISS:          0
cpu0_STLB RFO          ACCESS:          0  HIT:          0  MISS:          0  iACCESS:          0  iHIT:          0  iMISS:          0  dACCESS:          0  dHIT:          0  dMISS:          0  itACCESS:          0  itHIT:          0  itMISS:          0  dtACCESS:          0  dtHIT:          0  dtMISS:          0
cpu0_STLB PREFETCH     ACCESS:          0  HIT:          0  MISS:          0  iACCESS:          0  iHIT:          0  iMISS:          0  dACCESS:          0  dHIT:          0  dMISS:          0  itACCESS:          0  itHIT:          0  itMISS:          0  dtACCESS:          0  dtHIT:          0  dtMISS:          0
cpu0_STLB WRITE        ACCESS:          0  HIT:          0  MISS:          0  iACCESS:          0  iHIT:          0  iMISS:          0  dACCESS:          0  dHIT:          0  dMISS:          0  itACCESS:          0  itHIT:          0  itMISS:          0  dtACCESS:          0  dtHIT:          0  dtMISS:          0
cpu0_STLB TRANSLATION  ACCESS:          0  HIT:          0  MISS:          0  iACCESS:          0  iHIT:          0  iMISS:          0  dACCESS:          0  dHIT:          0  dMISS:          0  itACCESS:          0  itHIT:          0  itMISS:          0  dtACCESS:          0  dtHIT:          0  dtMISS:          0
cpu0_STLB PREFETCH  REQUESTED:          0  ISSUED:          0  CROSSED:          0  USEFUL:          0  USELESS:          0
cpu0_STLB AVERAGE iMISS LATENCY: 22.2174 cycles
cpu0_STLB AVERAGE dMISS LATENCY: 71.9465 cycles
cpu0_STLB AVERAGE itMISS LATENCY: 0 cycles
cpu0_STLB AVERAGE dtMISS LATENCY: 0 cycles
cpu0_STLB PAGE CROSSINGS (TLB HIT):         0 
cpu0_STLB PAGE CROSSINGS (TLB MISS):         0 
cpu0_STLB AVERAGE MISS LATENCY: 94.1638 cycles
cpu0_L1D TOTAL       ACCESS:   46045421  HIT:   39829499  MISS:    6215922  iACCESS:          0  iHIT:          0  iMISS:          0  dACCESS:   45720797  dHIT:   39801816  dMISS:    5918981  itACCESS:      92678  itHIT:      14785  itMISS:      77893  dtACCESS:     231946  dtHIT:      12898  dtMISS:     219048
cpu0_L1D LOAD         ACCESS:   22032641  HIT:   19293838  MISS:    2738803  iACCESS:          0  iHIT:          0  iMISS:          0  dACCESS:   22032641  dHIT:   19293838  dMISS:    2738803  itACCESS:          0  itHIT:          0  itMISS:          0  dtACCESS:          0  dtHIT:          0  dtMISS:          0
cpu0_L1D RFO          ACCESS:          0  HIT:          0  MISS:          0  iACCESS:          0  iHIT:          0  iMISS:          0  dACCESS:          0  dHIT:          0  dMISS:          0  itACCESS:          0  itHIT:          0  itMISS:          0  dtACCESS:          0  dtHIT:          0  dtMISS:          0
cpu0_L1D PREFETCH     ACCESS:   13994613  HIT:   11525078  MISS:    2469535  iACCESS:          0  iHIT:          0  iMISS:          0  dACCESS:   13994613  dHIT:   11525078  dMISS:    2469535  itACCESS:          0  itHIT:          0  itMISS:          0  dtACCESS:          0  dtHIT:          0  dtMISS:          0
cpu0_L1D WRITE        ACCESS:    9693543  HIT:    8982900  MISS:     710643  iACCESS:          0  iHIT:          0  iMISS:          0  dACCESS:    9693543  dHIT:    8982900  dMISS:     710643  itACCESS:          0  itHIT:          0  itMISS:          0  dtACCESS:          0  dtHIT:          0  dtMISS:          0
cpu0_L1D TRANSLATION  ACCESS:     324624  HIT:      27683  MISS:     296941  iACCESS:          0  iHIT:          0  iMISS:          0  dACCESS:          0  dHIT:          0  dMISS:          0  itACCESS:      92678  itHIT:      14785  itMISS:      77893  dtACCESS:     231946  dtHIT:      12898  dtMISS:     219048
cpu0_L1D PREFETCH  REQUESTED:   22032641  ISSUED:   18546749  CROSSED:          0  USEFUL:     317800  USELESS:     696557
cpu0_L1D AVERAGE iMISS LATENCY: 0 cycles
cpu0_L1D AVERAGE dMISS LATENCY: 35.1668 cycles
cpu0_L1D AVERAGE itMISS LATENCY: 0.676561 cycles
cpu0_L1D AVERAGE dtMISS LATENCY: 2.2462 cycles
cpu0_L1D PAGE CROSSINGS (TLB HIT):         0 
cpu0_L1D PAGE CROSSINGS (TLB MISS):         0 
cpu0_L1D AVERAGE MISS LATENCY: 38.0896 cycles
cpu0_L2C TOTAL       ACCESS:    6748428  HIT:    1459196  MISS:    5289232  iACCESS:    2841164  iHIT:     679269  iMISS:    2161895  dACCESS:    3661572  dHIT:     640449  dMISS:    3021123  itACCESS:      72385  itHIT:      48224  itMISS:      24161  dtACCESS:     173307  dtHIT:      91254  dtMISS:      82053
cpu0_L2C LOAD         ACCESS:    1794305  HIT:     286953  MISS:    1507352  iACCESS:     657420  iHIT:     112683  iMISS:     544737  dACCESS:    1136885  dHIT:     174270  dMISS:     962615  itACCESS:          0  itHIT:          0  itMISS:          0  dtACCESS:          0  dtHIT:          0  dtMISS:          0
cpu0_L2C RFO          ACCESS:     172409  HIT:      35356  MISS:     137053  iACCESS:          0  iHIT:          0  iMISS:          0  dACCESS:     172409  dHIT:      35356  dMISS:     137053  itACCESS:          0  itHIT:          0  itMISS:          0  dtACCESS:          0  dtHIT:          0  dtMISS:          0
cpu0_L2C PREFETCH     ACCESS:    4252348  HIT:     877879  MISS:    3374469  iACCESS:    2183744  iHIT:     566586  iMISS:    1617158  dACCESS:    2068604  dHIT:     311293  dMISS:    1757311  itACCESS:          0  itHIT:          0  itMISS:          0  dtACCESS:          0  dtHIT:          0  dtMISS:          0
cpu0_L2C WRITE        ACCESS:     283674  HIT:     119530  MISS:     164144  iACCESS:          0  iHIT:          0  iMISS:          0  dACCESS:     283674  dHIT:     119530  dMISS:     164144  itACCESS:          0  itHIT:          0  itMISS:          0  dtACCESS:          0  dtHIT:          0  dtMISS:          0
cpu0_L2C TRANSLATION  ACCESS:     245692  HIT:     139478  MISS:     106214  iACCESS:          0  iHIT:          0  iMISS:          0  dACCESS:          0  dHIT:          0  dMISS:          0  itACCESS:      72385  itHIT:      48224  itMISS:      24161  dtACCESS:     173307  dtHIT:      91254  dtMISS:      82053
cpu0_L2C PREFETCH  REQUESTED:    1257040  ISSUED:    1257040  CROSSED:          0  USEFUL:     334280  USELESS:     370997
cpu0_L2C AVERAGE iMISS LATENCY: 23.0662 cycles
cpu0_L2C AVERAGE dMISS LATENCY: 49.0417 cycles
cpu0_L2C AVERAGE itMISS LATENCY: 0.666936 cycles
cpu0_L2C AVERAGE dtMISS LATENCY: 2.32802 cycles
cpu0_L2C PAGE CROSSINGS (TLB HIT):         0 
cpu0_L2C PAGE CROSSINGS (TLB MISS):         0 
cpu0_L2C AVERAGE MISS LATENCY: 75.1028 cycles
LLC TOTAL       ACCESS:    5141503  HIT:    3354918  MISS:    1786585  iACCESS:    2095324  iHIT:    1545966  iMISS:     549358  dACCESS:    2939965  dHIT:    1772726  dMISS:    1167239  itACCESS:      24161  itHIT:       6882  itMISS:      17279  dtACCESS:      82053  dtHIT:      29344  dtMISS:      52709
LLC LOAD         ACCESS:    1500087  HIT:    1039377  MISS:     460710  iACCESS:     543552  iHIT:     427106  iMISS:     116446  dACCESS:     956535  dHIT:     612271  dMISS:     344264  itACCESS:          0  itHIT:          0  itMISS:          0  dtACCESS:          0  dtHIT:          0  dtMISS:          0
LLC RFO          ACCESS:     137052  HIT:      62661  MISS:      74391  iACCESS:          0  iHIT:          0  iMISS:          0  dACCESS:     137052  dHIT:      62661  dMISS:      74391  itACCESS:          0  itHIT:          0  itMISS:          0  dtACCESS:          0  dtHIT:          0  dtMISS:          0
LLC PREFETCH     ACCESS:    3219214  HIT:    2048875  MISS:    1170339  iACCESS:    1551772  iHIT:    1118860  iMISS:     432912  dACCESS:    1667442  dHIT:     930015  dMISS:     737427  itACCESS:          0  itHIT:          0  itMISS:          0  dtACCESS:          0  dtHIT:          0  dtMISS:          0
LLC WRITE        ACCESS:     178936  HIT:     167779  MISS:      11157  iACCESS:          0  iHIT:          0  iMISS:          0  dACCESS:     178936  dHIT:     167779  dMISS:      11157  itACCESS:          0  itHIT:          0  itMISS:          0  dtACCESS:          0  dtHIT:          0  dtMISS:          0
LLC TRANSLATION  ACCESS:     106214  HIT:      36226  MISS:      69988  iACCESS:          0  iHIT:          0  iMISS:          0  dACCESS:          0  dHIT:          0  dMISS:          0  itACCESS:      24161  itHIT:       6882  itMISS:      17279  dtACCESS:      82053  dtHIT:      29344  dtMISS:      52709
LLC PREFETCH  REQUESTED:          0  ISSUED:          0  CROSSED:          0  USEFUL:          0  USELESS:          0
LLC AVERAGE iMISS LATENCY: 45.5403 cycles
LLC AVERAGE dMISS LATENCY: 116.529 cycles
LLC AVERAGE itMISS LATENCY: 1.70854 cycles
LLC AVERAGE dtMISS LATENCY: 5.99273 cycles
LLC PAGE CROSSINGS (TLB HIT):         0 
LLC PAGE CROSSINGS (TLB MISS):         0 
LLC AVERAGE MISS LATENCY: 169.77 cycles

PageTableWalker TOTAL       ACCESS:     113223  
PageTableWalker AVERAGE LATENCY: 4.29727 cycles
PageTableWalker TOTAL LATENCY: 486549 cycles

DRAM Statistics
Channel 0
 RQ ROW_BUFFER_HIT:     515159
  ROW_BUFFER_MISS:    1243925
 AVG DBUS CONGESTED CYCLE:    3.66479
 WQ ROW_BUFFER_HIT:      39111
  ROW_BUFFER_MISS:      41898  FULL:          0

