last_page:0x200000000000000
VMEM_RES_CAP:0x100000
PAGE_SIZE:4096
LOG2_PAGE_SIZE:12
LOG2_PAGE_TABLE_SIZE:9
page_table_levels:5
WARNING: physical memory size is smaller than virtual memory size
FDiP enabled with aggresivity 16

*** ChampSim Multicore Out-of-Order Simulator ***

Warmup Instructions: 50000000
Simulation Instructions: 100000000
Number of CPUs: 1
Small page size: 4096
Large page size: 2097152

CPU 0 Bimodal branch predictor
Basic BTB sets: 1024 ways: 8 indirect buffer size: 4096 RAS size: 64
Instruction page size distrubution: 0
Loading instruction page size distribution from /home/bsc/bsc018186/scratch/itp_asplos25_AE/dump/srv459_ap.pdst
Data page size distrubution: 0
Loading data page size distribution from /home/bsc/bsc018186/scratch/itp_asplos25_AE/dump/srv459_ap.pdst
cpu0_L2C IP-based stride prefetcher
cpu0_L1D next line prefetcher
cpu0_L1I next line prefetcher
Off-chip DRAM Size: 4 GiB Channels: 1 Width: 64-bit Data Rate: 3200 MT/s
Heartbeat CPU 0 instructions: 10000001 cycles: 2500169 heartbeat IPC: 3.99974 cumulative IPC: 3.99974 (Simulation time: 0 hr 0 min 34 sec) 
Heartbeat CPU 0 instructions: 20000000 cycles: 5000221 heartbeat IPC: 3.99992 cumulative IPC: 3.99983 (Simulation time: 0 hr 1 min 11 sec) 
Heartbeat CPU 0 instructions: 30000000 cycles: 7500226 heartbeat IPC: 4 cumulative IPC: 3.99988 (Simulation time: 0 hr 1 min 47 sec) 
Heartbeat CPU 0 instructions: 40000002 cycles: 10000425 heartbeat IPC: 3.99969 cumulative IPC: 3.99984 (Simulation time: 0 hr 2 min 24 sec) 
Heartbeat CPU 0 instructions: 50000001 cycles: 12500428 heartbeat IPC: 4 cumulative IPC: 3.99987 (Simulation time: 0 hr 3 min 1 sec) 
Warmup finished CPU 0 instructions: 50000001 cycles: 12500429 cumulative IPC: 3.99987 (Simulation time: 0 hr 3 min 1 sec) 

Warmup complete CPU 0 instructions: 50000001 cycles: 12500429 (Simulation time: 0 hr 3 min 1 sec) 

Heartbeat CPU 0 instructions: 60000000 cycles: 28475594 heartbeat IPC: 0.625972 cumulative IPC: 0.625972 (Simulation time: 0 hr 4 min 2 sec) 
Heartbeat CPU 0 instructions: 70000000 cycles: 44300033 heartbeat IPC: 0.631934 cumulative IPC: 0.628939 (Simulation time: 0 hr 5 min 2 sec) 
Heartbeat CPU 0 instructions: 80000000 cycles: 59650253 heartbeat IPC: 0.651457 cumulative IPC: 0.63627 (Simulation time: 0 hr 6 min 3 sec) 
Heartbeat CPU 0 instructions: 90000001 cycles: 75190522 heartbeat IPC: 0.64349 cumulative IPC: 0.63806 (Simulation time: 0 hr 7 min 3 sec) 
Heartbeat CPU 0 instructions: 100000002 cycles: 90532466 heartbeat IPC: 0.651808 cumulative IPC: 0.640763 (Simulation time: 0 hr 8 min 3 sec) 
*** Reached end of trace: /gpfs/projects/bsc18/MN4/bsc18/romol/ChampSim/traces/qualcomm_srv/srv459_ap.champsimtrace.xz
Heartbeat CPU 0 instructions: 110000001 cycles: 105664346 heartbeat IPC: 0.660857 cumulative IPC: 0.644027 (Simulation time: 0 hr 9 min 3 sec) 
Heartbeat CPU 0 instructions: 120000002 cycles: 120190593 heartbeat IPC: 0.68841 cumulative IPC: 0.650013 (Simulation time: 0 hr 10 min 2 sec) 
Heartbeat CPU 0 instructions: 130000000 cycles: 135311833 heartbeat IPC: 0.661322 cumulative IPC: 0.651406 (Simulation time: 0 hr 11 min 2 sec) 
Heartbeat CPU 0 instructions: 140000002 cycles: 150188920 heartbeat IPC: 0.672175 cumulative IPC: 0.65365 (Simulation time: 0 hr 12 min 2 sec) 
Heartbeat CPU 0 instructions: 150000000 cycles: 165405804 heartbeat IPC: 0.657165 cumulative IPC: 0.654 (Simulation time: 0 hr 13 min 3 sec) 
Simulation finished CPU 0 instructions: 100000003 cycles: 152905377 cumulative IPC: 0.654 (Simulation time: 0 hr 13 min 3 sec) 

Simulation complete CPU 0 instructions: 100000003 cycles: 152905377 (Simulation time: 0 hr 13 min 3 sec) 


ChampSim completed all CPUs

Saving instructions large page distribution to /home/bsc/bsc018186/scratch/itp_asplos25_AE/dump/srv459_ap.pdst...
Saving data large page distribution to /home/bsc/bsc018186/scratch/itp_asplos25_AE/dump/srv459_ap.pdst...
=== Simulation ===
CPU 0 runs /gpfs/projects/bsc18/MN4/bsc18/romol/ChampSim/traces/qualcomm_srv/srv459_ap.champsimtrace.xz

Region of Interest Statistics

CPU 0 cumulative IPC: 0.654 instructions: 100000003 cycles: 152905377
CPU 0 Branch Prediction Accuracy: 83.3738% MPKI: 29.7268 Average ROB Occupancy at Mispredict: 12.8798
Branch type MPKI
BRANCH_DIRECT_JUMP: 1.02552
BRANCH_INDIRECT: 15.3168
BRANCH_CONDITIONAL: 9.68338
BRANCH_DIRECT_CALL: 1.84683
BRANCH_INDIRECT_CALL: 0.51366
BRANCH_RETURN: 1.34066

Instructions large pages: 0
Instructions small pages: 995
Large page distribution for instructions: 0%

Data large pages: 0
Data small pages: 10329
Large page distribution for data: 0%

cpu0_L1I TOTAL       ACCESS:   34754945  HIT:   27015320  MISS:    7739625  iACCESS:   34754945  iHIT:   27015320  iMISS:    7739625  dACCESS:          0  dHIT:          0  dMISS:          0  itACCESS:          0  itHIT:          0  itMISS:          0  dtACCESS:          0  dtHIT:          0  dtMISS:          0
cpu0_L1I LOAD         ACCESS:   10233141  HIT:    8053349  MISS:    2179792  iACCESS:   10233141  iHIT:    8053349  iMISS:    2179792  dACCESS:          0  dHIT:          0  dMISS:          0  itACCESS:          0  itHIT:          0  itMISS:          0  dtACCESS:          0  dtHIT:          0  dtMISS:          0
cpu0_L1I RFO          ACCESS:          0  HIT:          0  MISS:          0  iACCESS:          0  iHIT:          0  iMISS:          0  dACCESS:          0  dHIT:          0  dMISS:          0  itACCESS:          0  itHIT:          0  itMISS:          0  dtACCESS:          0  dtHIT:          0  dtMISS:          0
cpu0_L1I PREFETCH     ACCESS:   24521804  HIT:   18961971  MISS:    5559833  iACCESS:   24521804  iHIT:   18961971  iMISS:    5559833  dACCESS:          0  dHIT:          0  dMISS:          0  itACCESS:          0  itHIT:          0  itMISS:          0  dtACCESS:          0  dtHIT:          0  dtMISS:          0
cpu0_L1I WRITE        ACCESS:          0  HIT:          0  MISS:          0  iACCESS:          0  iHIT:          0  iMISS:          0  dACCESS:          0  dHIT:          0  dMISS:          0  itACCESS:          0  itHIT:          0  itMISS:          0  dtACCESS:          0  dtHIT:          0  dtMISS:          0
cpu0_L1I TRANSLATION  ACCESS:          0  HIT:          0  MISS:          0  iACCESS:          0  iHIT:          0  iMISS:          0  dACCESS:          0  dHIT:          0  dMISS:          0  itACCESS:          0  itHIT:          0  itMISS:          0  dtACCESS:          0  dtHIT:          0  dtMISS:          0
cpu0_L1I PREFETCH  REQUESTED:   27121714  ISSUED:   27121714  CROSSED:          0  USEFUL:    1879633  USELESS:     623084
cpu0_L1I AVERAGE iMISS LATENCY: 12.9788 cycles
cpu0_L1I AVERAGE dMISS LATENCY: 0 cycles
cpu0_L1I AVERAGE itMISS LATENCY: 0 cycles
cpu0_L1I AVERAGE dtMISS LATENCY: 0 cycles
cpu0_L1I PAGE CROSSINGS (TLB HIT):         0 
cpu0_L1I PAGE CROSSINGS (TLB MISS):         0 
cpu0_L1I AVERAGE MISS LATENCY: 12.9788 cycles
cpu0_ITLB TOTAL       ACCESS:   29004337  HIT:   27031153  MISS:    1973184  iACCESS:   29004337  iHIT:   27031153  iMISS:    1973184  dACCESS:          0  dHIT:          0  dMISS:          0  itACCESS:          0  itHIT:          0  itMISS:          0  dtACCESS:          0  dtHIT:          0  dtMISS:          0
cpu0_ITLB LOAD         ACCESS:   29004337  HIT:   27031153  MISS:    1973184  iACCESS:   29004337  iHIT:   27031153  iMISS:    1973184  dACCESS:          0  dHIT:          0  dMISS:          0  itACCESS:          0  itHIT:          0  itMISS:          0  dtACCESS:          0  dtHIT:          0  dtMISS:          0
cpu0_ITLB RFO          ACCESS:          0  HIT:          0  MISS:          0  iACCESS:          0  iHIT:          0  iMISS:          0  dACCESS:          0  dHIT:          0  dMISS:          0  itACCESS:          0  itHIT:          0  itMISS:          0  dtACCESS:          0  dtHIT:          0  dtMISS:          0
cpu0_ITLB PREFETCH     ACCESS:          0  HIT:          0  MISS:          0  iACCESS:          0  iHIT:          0  iMISS:          0  dACCESS:          0  dHIT:          0  dMISS:          0  itACCESS:          0  itHIT:          0  itMISS:          0  dtACCESS:          0  dtHIT:          0  dtMISS:          0
cpu0_ITLB WRITE        ACCESS:          0  HIT:          0  MISS:          0  iACCESS:          0  iHIT:          0  iMISS:          0  dACCESS:          0  dHIT:          0  dMISS:          0  itACCESS:          0  itHIT:          0  itMISS:          0  dtACCESS:          0  dtHIT:          0  dtMISS:          0
cpu0_ITLB TRANSLATION  ACCESS:          0  HIT:          0  MISS:          0  iACCESS:          0  iHIT:          0  iMISS:          0  dACCESS:          0  dHIT:          0  dMISS:          0  itACCESS:          0  itHIT:          0  itMISS:          0  dtACCESS:          0  dtHIT:          0  dtMISS:          0
cpu0_ITLB PREFETCH  REQUESTED:          0  ISSUED:          0  CROSSED:          0  USEFUL:     319476  USELESS:      66637
cpu0_ITLB AVERAGE iMISS LATENCY: 5.14014 cycles
cpu0_ITLB AVERAGE dMISS LATENCY: 0 cycles
cpu0_ITLB AVERAGE itMISS LATENCY: 0 cycles
cpu0_ITLB AVERAGE dtMISS LATENCY: 0 cycles
cpu0_ITLB PAGE CROSSINGS (TLB HIT):         0 
cpu0_ITLB PAGE CROSSINGS (TLB MISS):         0 
cpu0_ITLB AVERAGE MISS LATENCY: 5.14014 cycles
cpu0_DTLB TOTAL       ACCESS:   27667363  HIT:   25730581  MISS:    1936782  iACCESS:          0  iHIT:          0  iMISS:          0  dACCESS:   27667363  dHIT:   25730581  dMISS:    1936782  itACCESS:          0  itHIT:          0  itMISS:          0  dtACCESS:          0  dtHIT:          0  dtMISS:          0
cpu0_DTLB LOAD         ACCESS:   27667363  HIT:   25730581  MISS:    1936782  iACCESS:          0  iHIT:          0  iMISS:          0  dACCESS:   27667363  dHIT:   25730581  dMISS:    1936782  itACCESS:          0  itHIT:          0  itMISS:          0  dtACCESS:          0  dtHIT:          0  dtMISS:          0
cpu0_DTLB RFO          ACCESS:          0  HIT:          0  MISS:          0  iACCESS:          0  iHIT:          0  iMISS:          0  dACCESS:          0  dHIT:          0  dMISS:          0  itACCESS:          0  itHIT:          0  itMISS:          0  dtACCESS:          0  dtHIT:          0  dtMISS:          0
cpu0_DTLB PREFETCH     ACCESS:          0  HIT:          0  MISS:          0  iACCESS:          0  iHIT:          0  iMISS:          0  dACCESS:          0  dHIT:          0  dMISS:          0  itACCESS:          0  itHIT:          0  itMISS:          0  dtACCESS:          0  dtHIT:          0  dtMISS:          0
cpu0_DTLB WRITE        ACCESS:          0  HIT:          0  MISS:          0  iACCESS:          0  iHIT:          0  iMISS:          0  dACCESS:          0  dHIT:          0  dMISS:          0  itACCESS:          0  itHIT:          0  itMISS:          0  dtACCESS:          0  dtHIT:          0  dtMISS:          0
cpu0_DTLB TRANSLATION  ACCESS:          0  HIT:          0  MISS:          0  iACCESS:          0  iHIT:          0  iMISS:          0  dACCESS:          0  dHIT:          0  dMISS:          0  itACCESS:          0  itHIT:          0  itMISS:          0  dtACCESS:          0  dtHIT:          0  dtMISS:          0
cpu0_DTLB PREFETCH  REQUESTED:          0  ISSUED:          0  CROSSED:          0  USEFUL:          0  USELESS:          0
cpu0_DTLB AVERAGE iMISS LATENCY: 0 cycles
cpu0_DTLB AVERAGE dMISS LATENCY: 15.186 cycles
cpu0_DTLB AVERAGE itMISS LATENCY: 0 cycles
cpu0_DTLB AVERAGE dtMISS LATENCY: 0 cycles
cpu0_DTLB PAGE CROSSINGS (TLB HIT):         0 
cpu0_DTLB PAGE CROSSINGS (TLB MISS):         0 
cpu0_DTLB AVERAGE MISS LATENCY: 15.186 cycles
cpu0_STLB TOTAL       ACCESS:    1536247  HIT:    1362581  MISS:     173666  iACCESS:     386121  iHIT:     323038  iMISS:      63083  dACCESS:    1150126  dHIT:    1039543  dMISS:     110583  itACCESS:          0  itHIT:          0  itMISS:          0  dtACCESS:          0  dtHIT:          0  dtMISS:          0
cpu0_STLB LOAD         ACCESS:    1536247  HIT:    1362581  MISS:     173666  iACCESS:     386121  iHIT:     323038  iMISS:      63083  dACCESS:    1150126  dHIT:    1039543  dMISS:     110583  itACCESS:          0  itHIT:          0  itMISS:          0  dtACCESS:          0  dtHIT:          0  dtMISS:          0
cpu0_STLB RFO          ACCESS:          0  HIT:          0  MISS:          0  iACCESS:          0  iHIT:          0  iMISS:          0  dACCESS:          0  dHIT:          0  dMISS:          0  itACCESS:          0  itHIT:          0  itMISS:          0  dtACCESS:          0  dtHIT:          0  dtMISS:          0
cpu0_STLB PREFETCH     ACCESS:          0  HIT:          0  MISS:          0  iACCESS:          0  iHIT:          0  iMISS:          0  dACCESS:          0  dHIT:          0  dMISS:          0  itACCESS:          0  itHIT:          0  itMISS:          0  dtACCESS:          0  dtHIT:          0  dtMISS:          0
cpu0_STLB WRITE        ACCESS:          0  HIT:          0  MISS:          0  iACCESS:          0  iHIT:          0  iMISS:          0  dACCESS:          0  dHIT:          0  dMISS:          0  itACCESS:          0  itHIT:          0  itMISS:          0  dtACCESS:          0  dtHIT:          0  dtMISS:          0
cpu0_STLB TRANSLATION  ACCESS:          0  HIT:          0  MISS:          0  iACCESS:          0  iHIT:          0  iMISS:          0  dACCESS:          0  dHIT:          0  dMISS:          0  itACCESS:          0  itHIT:          0  itMISS:          0  dtACCESS:          0  dtHIT:          0  dtMISS:          0
cpu0_STLB PREFETCH  REQUESTED:          0  ISSUED:          0  CROSSED:          0  USEFUL:          0  USELESS:          0
cpu0_STLB AVERAGE iMISS LATENCY: 40.7931 cycles
cpu0_STLB AVERAGE dMISS LATENCY: 116.505 cycles
cpu0_STLB AVERAGE itMISS LATENCY: 0 cycles
cpu0_STLB AVERAGE dtMISS LATENCY: 0 cycles
cpu0_STLB PAGE CROSSINGS (TLB HIT):         0 
cpu0_STLB PAGE CROSSINGS (TLB MISS):         0 
cpu0_STLB AVERAGE MISS LATENCY: 157.298 cycles
cpu0_L1D TOTAL       ACCESS:   41352155  HIT:   37935115  MISS:    3417040  iACCESS:          0  iHIT:          0  iMISS:          0  dACCESS:   41118809  dHIT:   37913955  dMISS:    3204854  itACCESS:      68647  itHIT:      10196  itMISS:      58451  dtACCESS:     164699  dtHIT:      10964  dtMISS:     153735
cpu0_L1D LOAD         ACCESS:   18903261  HIT:   17442512  MISS:    1460749  iACCESS:          0  iHIT:          0  iMISS:          0  dACCESS:   18903261  dHIT:   17442512  dMISS:    1460749  itACCESS:          0  itHIT:          0  itMISS:          0  dtACCESS:          0  dtHIT:          0  dtMISS:          0
cpu0_L1D RFO          ACCESS:          0  HIT:          0  MISS:          0  iACCESS:          0  iHIT:          0  iMISS:          0  dACCESS:          0  dHIT:          0  dMISS:          0  itACCESS:          0  itHIT:          0  itMISS:          0  dtACCESS:          0  dtHIT:          0  dtMISS:          0
cpu0_L1D PREFETCH     ACCESS:   12043675  HIT:   10730989  MISS:    1312686  iACCESS:          0  iHIT:          0  iMISS:          0  dACCESS:   12043675  dHIT:   10730989  dMISS:    1312686  itACCESS:          0  itHIT:          0  itMISS:          0  dtACCESS:          0  dtHIT:          0  dtMISS:          0
cpu0_L1D WRITE        ACCESS:   10171873  HIT:    9740454  MISS:     431419  iACCESS:          0  iHIT:          0  iMISS:          0  dACCESS:   10171873  dHIT:    9740454  dMISS:     431419  itACCESS:          0  itHIT:          0  itMISS:          0  dtACCESS:          0  dtHIT:          0  dtMISS:          0
cpu0_L1D TRANSLATION  ACCESS:     233346  HIT:      21160  MISS:     212186  iACCESS:          0  iHIT:          0  iMISS:          0  dACCESS:          0  dHIT:          0  dMISS:          0  itACCESS:      68647  itHIT:      10196  itMISS:      58451  dtACCESS:     164699  dtHIT:      10964  dtMISS:     153735
cpu0_L1D PREFETCH  REQUESTED:   18903261  ISSUED:   16874448  CROSSED:          0  USEFUL:     304587  USELESS:     694286
cpu0_L1D AVERAGE iMISS LATENCY: 0 cycles
cpu0_L1D AVERAGE dMISS LATENCY: 33.2744 cycles
cpu0_L1D AVERAGE itMISS LATENCY: 1.91165 cycles
cpu0_L1D AVERAGE dtMISS LATENCY: 5.1731 cycles
cpu0_L1D PAGE CROSSINGS (TLB HIT):         0 
cpu0_L1D PAGE CROSSINGS (TLB MISS):         0 
cpu0_L1D AVERAGE MISS LATENCY: 40.3592 cycles
cpu0_L2C TOTAL       ACCESS:    6885279  HIT:    4003065  MISS:    2882214  iACCESS:    3259216  iHIT:    2186976  iMISS:    1072240  dACCESS:    3421575  dHIT:    1784921  dMISS:    1636654  itACCESS:      58451  itHIT:      10616  itMISS:      47835  dtACCESS:     146037  dtHIT:      20552  dtMISS:     125485
cpu0_L2C LOAD         ACCESS:    1711954  HIT:    1025854  MISS:     686100  iACCESS:     790786  iHIT:     553195  iMISS:     237591  dACCESS:     921168  dHIT:     472659  dMISS:     448509  itACCESS:          0  itHIT:          0  itMISS:          0  dtACCESS:          0  dtHIT:          0  dtMISS:          0
cpu0_L2C RFO          ACCESS:     155747  HIT:      72575  MISS:      83172  iACCESS:          0  iHIT:          0  iMISS:          0  dACCESS:     155747  dHIT:      72575  dMISS:      83172  itACCESS:          0  itHIT:          0  itMISS:          0  dtACCESS:          0  dtHIT:          0  dtMISS:          0
cpu0_L2C PREFETCH     ACCESS:    4528646  HIT:    2590060  MISS:    1938586  iACCESS:    2468430  iHIT:    1633781  iMISS:     834649  dACCESS:    2060216  dHIT:     956279  dMISS:    1103937  itACCESS:          0  itHIT:          0  itMISS:          0  dtACCESS:          0  dtHIT:          0  dtMISS:          0
cpu0_L2C WRITE        ACCESS:     284444  HIT:     283408  MISS:       1036  iACCESS:          0  iHIT:          0  iMISS:          0  dACCESS:     284444  dHIT:     283408  dMISS:       1036  itACCESS:          0  itHIT:          0  itMISS:          0  dtACCESS:          0  dtHIT:          0  dtMISS:          0
cpu0_L2C TRANSLATION  ACCESS:     204488  HIT:      31168  MISS:     173320  iACCESS:          0  iHIT:          0  iMISS:          0  dACCESS:          0  dHIT:          0  dMISS:          0  itACCESS:      58451  itHIT:      10616  itMISS:      47835  dtACCESS:     146037  dtHIT:      20552  dtMISS:     125485
cpu0_L2C PREFETCH  REQUESTED:    1306031  ISSUED:    1306031  CROSSED:          0  USEFUL:     305018  USELESS:     222963
cpu0_L2C AVERAGE iMISS LATENCY: 24.8473 cycles
cpu0_L2C AVERAGE dMISS LATENCY: 46.239 cycles
cpu0_L2C AVERAGE itMISS LATENCY: 2.06675 cycles
cpu0_L2C AVERAGE dtMISS LATENCY: 5.62937 cycles
cpu0_L2C PAGE CROSSINGS (TLB HIT):         0 
cpu0_L2C PAGE CROSSINGS (TLB MISS):         0 
cpu0_L2C AVERAGE MISS LATENCY: 78.7824 cycles
LLC TOTAL       ACCESS:    2915804  HIT:    1812478  MISS:    1103326  iACCESS:    1020511  iHIT:     667484  iMISS:     353027  dACCESS:    1721973  dHIT:    1078452  dMISS:     643521  itACCESS:      47835  itHIT:      18338  itMISS:      29497  dtACCESS:     125485  dtHIT:      48204  dtMISS:      77281
LLC LOAD         ACCESS:     684757  HIT:     441167  MISS:     243590  iACCESS:     236671  iHIT:     158094  iMISS:      78577  dACCESS:     448086  dHIT:     283073  dMISS:     165013  itACCESS:          0  itHIT:          0  itMISS:          0  dtACCESS:          0  dtHIT:          0  dtMISS:          0
LLC RFO          ACCESS:      83172  HIT:      42099  MISS:      41073  iACCESS:          0  iHIT:          0  iMISS:          0  dACCESS:      83172  dHIT:      42099  dMISS:      41073  itACCESS:          0  itHIT:          0  itMISS:          0  dtACCESS:          0  dtHIT:          0  dtMISS:          0
LLC PREFETCH     ACCESS:    1836050  HIT:    1130377  MISS:     705673  iACCESS:     783840  iHIT:     509390  iMISS:     274450  dACCESS:    1052210  dHIT:     620987  dMISS:     431223  itACCESS:          0  itHIT:          0  itMISS:          0  dtACCESS:          0  dtHIT:          0  dtMISS:          0
LLC WRITE        ACCESS:     138505  HIT:     132293  MISS:       6212  iACCESS:          0  iHIT:          0  iMISS:          0  dACCESS:     138505  dHIT:     132293  dMISS:       6212  itACCESS:          0  itHIT:          0  itMISS:          0  dtACCESS:          0  dtHIT:          0  dtMISS:          0
LLC TRANSLATION  ACCESS:     173320  HIT:      66542  MISS:     106778  iACCESS:          0  iHIT:          0  iMISS:          0  dACCESS:          0  dHIT:          0  dMISS:          0  itACCESS:      47835  itHIT:      18338  itMISS:      29497  dtACCESS:     125485  dtHIT:      48204  dtMISS:      77281
LLC PREFETCH  REQUESTED:          0  ISSUED:          0  CROSSED:          0  USEFUL:          0  USELESS:          0
LLC AVERAGE iMISS LATENCY: 46.9261 cycles
LLC AVERAGE dMISS LATENCY: 92.9776 cycles
LLC AVERAGE itMISS LATENCY: 4.55016 cycles
LLC AVERAGE dtMISS LATENCY: 12.481 cycles
LLC PAGE CROSSINGS (TLB HIT):         0 
LLC PAGE CROSSINGS (TLB MISS):         0 
LLC AVERAGE MISS LATENCY: 156.935 cycles

PageTableWalker TOTAL       ACCESS:      85928  
PageTableWalker AVERAGE LATENCY: 5.20018 cycles
PageTableWalker TOTAL LATENCY: 446841 cycles

DRAM Statistics
Channel 0
 RQ ROW_BUFFER_HIT:     289772
  ROW_BUFFER_MISS:     807271
 AVG DBUS CONGESTED CYCLE:    3.61861
 WQ ROW_BUFFER_HIT:      23549
  ROW_BUFFER_MISS:      21684  FULL:          0

