last_page:0x200000000000000
VMEM_RES_CAP:0x100000
PAGE_SIZE:4096
LOG2_PAGE_SIZE:12
LOG2_PAGE_TABLE_SIZE:9
page_table_levels:5
WARNING: physical memory size is smaller than virtual memory size
FDiP enabled with aggresivity 16

*** ChampSim Multicore Out-of-Order Simulator ***

Warmup Instructions: 50000000
Simulation Instructions: 100000000
Number of CPUs: 1
Small page size: 4096
Large page size: 2097152

CPU 0 Bimodal branch predictor
Basic BTB sets: 1024 ways: 8 indirect buffer size: 4096 RAS size: 64
Instruction page size distrubution: 0
Loading instruction page size distribution from /home/bsc/bsc018186/scratch/itp_asplos25_AE/dump/srv45_ap.pdst
Data page size distrubution: 0
Loading data page size distribution from /home/bsc/bsc018186/scratch/itp_asplos25_AE/dump/srv45_ap.pdst
cpu0_L2C IP-based stride prefetcher
cpu0_L1D next line prefetcher
cpu0_STLB using iTP with max lru@8
cpu0_STLB using iTP with instr@0 and data@2
Init sat counter with 3 bits (max:50).
cpu0_L1I next line prefetcher
Off-chip DRAM Size: 4 GiB Channels: 1 Width: 64-bit Data Rate: 3200 MT/s
Heartbeat CPU 0 instructions: 10000001 cycles: 2500206 heartbeat IPC: 3.99968 cumulative IPC: 3.99968 (Simulation time: 0 hr 0 min 37 sec) 
Heartbeat CPU 0 instructions: 20000003 cycles: 5000208 heartbeat IPC: 4 cumulative IPC: 3.99984 (Simulation time: 0 hr 1 min 16 sec) 
Heartbeat CPU 0 instructions: 30000002 cycles: 7500444 heartbeat IPC: 3.99963 cumulative IPC: 3.99977 (Simulation time: 0 hr 1 min 56 sec) 
Heartbeat CPU 0 instructions: 40000001 cycles: 10000446 heartbeat IPC: 4 cumulative IPC: 3.99983 (Simulation time: 0 hr 2 min 36 sec) 
Heartbeat CPU 0 instructions: 50000000 cycles: 12500503 heartbeat IPC: 3.99991 cumulative IPC: 3.99984 (Simulation time: 0 hr 3 min 17 sec) 
Warmup finished CPU 0 instructions: 50000000 cycles: 12500504 cumulative IPC: 3.99984 (Simulation time: 0 hr 3 min 17 sec) 

Warmup complete CPU 0 instructions: 50000000 cycles: 12500504 (Simulation time: 0 hr 3 min 17 sec) 

Heartbeat CPU 0 instructions: 60000000 cycles: 27389431 heartbeat IPC: 0.671641 cumulative IPC: 0.671641 (Simulation time: 0 hr 4 min 21 sec) 
Heartbeat CPU 0 instructions: 70000004 cycles: 42210472 heartbeat IPC: 0.674717 cumulative IPC: 0.673175 (Simulation time: 0 hr 5 min 26 sec) 
Heartbeat CPU 0 instructions: 80000001 cycles: 57247219 heartbeat IPC: 0.665038 cumulative IPC: 0.670441 (Simulation time: 0 hr 6 min 31 sec) 
Heartbeat CPU 0 instructions: 90000004 cycles: 71349122 heartbeat IPC: 0.709125 cumulative IPC: 0.679711 (Simulation time: 0 hr 7 min 35 sec) 
Heartbeat CPU 0 instructions: 100000000 cycles: 85838875 heartbeat IPC: 0.690143 cumulative IPC: 0.681772 (Simulation time: 0 hr 8 min 39 sec) 
*** Reached end of trace: /gpfs/projects/bsc18/MN4/bsc18/romol/ChampSim/traces/qualcomm_srv/srv45_ap.champsimtrace.xz
Heartbeat CPU 0 instructions: 110000001 cycles: 100363126 heartbeat IPC: 0.688504 cumulative IPC: 0.682885 (Simulation time: 0 hr 9 min 43 sec) 
Heartbeat CPU 0 instructions: 120000001 cycles: 113829593 heartbeat IPC: 0.742586 cumulative IPC: 0.690819 (Simulation time: 0 hr 10 min 47 sec) 
Heartbeat CPU 0 instructions: 130000003 cycles: 129134356 heartbeat IPC: 0.653392 cumulative IPC: 0.685908 (Simulation time: 0 hr 11 min 54 sec) 
Heartbeat CPU 0 instructions: 140000003 cycles: 142282309 heartbeat IPC: 0.760575 cumulative IPC: 0.693472 (Simulation time: 0 hr 12 min 56 sec) 
Heartbeat CPU 0 instructions: 150000001 cycles: 156645583 heartbeat IPC: 0.69622 cumulative IPC: 0.693746 (Simulation time: 0 hr 14 min 1 sec) 
Simulation finished CPU 0 instructions: 100000001 cycles: 144145080 cumulative IPC: 0.693746 (Simulation time: 0 hr 14 min 1 sec) 

Simulation complete CPU 0 instructions: 100000001 cycles: 144145080 (Simulation time: 0 hr 14 min 1 sec) 


ChampSim completed all CPUs

Saving instructions large page distribution to /home/bsc/bsc018186/scratch/itp_asplos25_AE/dump/srv45_ap.pdst...
Saving data large page distribution to /home/bsc/bsc018186/scratch/itp_asplos25_AE/dump/srv45_ap.pdst...
=== Simulation ===
CPU 0 runs /gpfs/projects/bsc18/MN4/bsc18/romol/ChampSim/traces/qualcomm_srv/srv45_ap.champsimtrace.xz

Region of Interest Statistics

CPU 0 cumulative IPC: 0.693746 instructions: 100000001 cycles: 144145080
CPU 0 Branch Prediction Accuracy: 82.716% MPKI: 30.931 Average ROB Occupancy at Mispredict: 12.1751
Branch type MPKI
BRANCH_DIRECT_JUMP: 1.06715
BRANCH_INDIRECT: 15.7697
BRANCH_CONDITIONAL: 10.2538
BRANCH_DIRECT_CALL: 1.93069
BRANCH_INDIRECT_CALL: 0.52669
BRANCH_RETURN: 1.38307

Instructions large pages: 0
Instructions small pages: 1017
Large page distribution for instructions: 0%

Data large pages: 0
Data small pages: 9711
Large page distribution for data: 0%

cpu0_L1I TOTAL       ACCESS:   35574243  HIT:   27175537  MISS:    8398706  iACCESS:   35574243  iHIT:   27175537  iMISS:    8398706  dACCESS:          0  dHIT:          0  dMISS:          0  itACCESS:          0  itHIT:          0  itMISS:          0  dtACCESS:          0  dtHIT:          0  dtMISS:          0
cpu0_L1I LOAD         ACCESS:   10424421  HIT:    8077085  MISS:    2347336  iACCESS:   10424421  iHIT:    8077085  iMISS:    2347336  dACCESS:          0  dHIT:          0  dMISS:          0  itACCESS:          0  itHIT:          0  itMISS:          0  dtACCESS:          0  dtHIT:          0  dtMISS:          0
cpu0_L1I RFO          ACCESS:          0  HIT:          0  MISS:          0  iACCESS:          0  iHIT:          0  iMISS:          0  dACCESS:          0  dHIT:          0  dMISS:          0  itACCESS:          0  itHIT:          0  itMISS:          0  dtACCESS:          0  dtHIT:          0  dtMISS:          0
cpu0_L1I PREFETCH     ACCESS:   25149822  HIT:   19098452  MISS:    6051370  iACCESS:   25149822  iHIT:   19098452  iMISS:    6051370  dACCESS:          0  dHIT:          0  dMISS:          0  itACCESS:          0  itHIT:          0  itMISS:          0  dtACCESS:          0  dtHIT:          0  dtMISS:          0
cpu0_L1I WRITE        ACCESS:          0  HIT:          0  MISS:          0  iACCESS:          0  iHIT:          0  iMISS:          0  dACCESS:          0  dHIT:          0  dMISS:          0  itACCESS:          0  itHIT:          0  itMISS:          0  dtACCESS:          0  dtHIT:          0  dtMISS:          0
cpu0_L1I TRANSLATION  ACCESS:          0  HIT:          0  MISS:          0  iACCESS:          0  iHIT:          0  iMISS:          0  dACCESS:          0  dHIT:          0  dMISS:          0  itACCESS:          0  itHIT:          0  itMISS:          0  dtACCESS:          0  dtHIT:          0  dtMISS:          0
cpu0_L1I PREFETCH  REQUESTED:   27471163  ISSUED:   27469008  CROSSED:          0  USEFUL:    1947304  USELESS:     629078
cpu0_L1I AVERAGE iMISS LATENCY: 13.5771 cycles
cpu0_L1I AVERAGE dMISS LATENCY: 0 cycles
cpu0_L1I AVERAGE itMISS LATENCY: 0 cycles
cpu0_L1I AVERAGE dtMISS LATENCY: 0 cycles
cpu0_L1I PAGE CROSSINGS (TLB HIT):         0 
cpu0_L1I PAGE CROSSINGS (TLB MISS):         0 
cpu0_L1I AVERAGE MISS LATENCY: 13.5771 cycles
cpu0_ITLB TOTAL       ACCESS:   29441574  HIT:   27521575  MISS:    1919999  iACCESS:   29441574  iHIT:   27521575  iMISS:    1919999  dACCESS:          0  dHIT:          0  dMISS:          0  itACCESS:          0  itHIT:          0  itMISS:          0  dtACCESS:          0  dtHIT:          0  dtMISS:          0
cpu0_ITLB LOAD         ACCESS:   29441574  HIT:   27521575  MISS:    1919999  iACCESS:   29441574  iHIT:   27521575  iMISS:    1919999  dACCESS:          0  dHIT:          0  dMISS:          0  itACCESS:          0  itHIT:          0  itMISS:          0  dtACCESS:          0  dtHIT:          0  dtMISS:          0
cpu0_ITLB RFO          ACCESS:          0  HIT:          0  MISS:          0  iACCESS:          0  iHIT:          0  iMISS:          0  dACCESS:          0  dHIT:          0  dMISS:          0  itACCESS:          0  itHIT:          0  itMISS:          0  dtACCESS:          0  dtHIT:          0  dtMISS:          0
cpu0_ITLB PREFETCH     ACCESS:          0  HIT:          0  MISS:          0  iACCESS:          0  iHIT:          0  iMISS:          0  dACCESS:          0  dHIT:          0  dMISS:          0  itACCESS:          0  itHIT:          0  itMISS:          0  dtACCESS:          0  dtHIT:          0  dtMISS:          0
cpu0_ITLB WRITE        ACCESS:          0  HIT:          0  MISS:          0  iACCESS:          0  iHIT:          0  iMISS:          0  dACCESS:          0  dHIT:          0  dMISS:          0  itACCESS:          0  itHIT:          0  itMISS:          0  dtACCESS:          0  dtHIT:          0  dtMISS:          0
cpu0_ITLB TRANSLATION  ACCESS:          0  HIT:          0  MISS:          0  iACCESS:          0  iHIT:          0  iMISS:          0  dACCESS:          0  dHIT:          0  dMISS:          0  itACCESS:          0  itHIT:          0  itMISS:          0  dtACCESS:          0  dtHIT:          0  dtMISS:          0
cpu0_ITLB PREFETCH  REQUESTED:          0  ISSUED:          0  CROSSED:          0  USEFUL:     317870  USELESS:      63168
cpu0_ITLB AVERAGE iMISS LATENCY: 2.04321 cycles
cpu0_ITLB AVERAGE dMISS LATENCY: 0 cycles
cpu0_ITLB AVERAGE itMISS LATENCY: 0 cycles
cpu0_ITLB AVERAGE dtMISS LATENCY: 0 cycles
cpu0_ITLB PAGE CROSSINGS (TLB HIT):         0 
cpu0_ITLB PAGE CROSSINGS (TLB MISS):         0 
cpu0_ITLB AVERAGE MISS LATENCY: 2.04321 cycles
cpu0_DTLB TOTAL       ACCESS:   27767637  HIT:   25682095  MISS:    2085542  iACCESS:          0  iHIT:          0  iMISS:          0  dACCESS:   27767637  dHIT:   25682095  dMISS:    2085542  itACCESS:          0  itHIT:          0  itMISS:          0  dtACCESS:          0  dtHIT:          0  dtMISS:          0
cpu0_DTLB LOAD         ACCESS:   27767637  HIT:   25682095  MISS:    2085542  iACCESS:          0  iHIT:          0  iMISS:          0  dACCESS:   27767637  dHIT:   25682095  dMISS:    2085542  itACCESS:          0  itHIT:          0  itMISS:          0  dtACCESS:          0  dtHIT:          0  dtMISS:          0
cpu0_DTLB RFO          ACCESS:          0  HIT:          0  MISS:          0  iACCESS:          0  iHIT:          0  iMISS:          0  dACCESS:          0  dHIT:          0  dMISS:          0  itACCESS:          0  itHIT:          0  itMISS:          0  dtACCESS:          0  dtHIT:          0  dtMISS:          0
cpu0_DTLB PREFETCH     ACCESS:          0  HIT:          0  MISS:          0  iACCESS:          0  iHIT:          0  iMISS:          0  dACCESS:          0  dHIT:          0  dMISS:          0  itACCESS:          0  itHIT:          0  itMISS:          0  dtACCESS:          0  dtHIT:          0  dtMISS:          0
cpu0_DTLB WRITE        ACCESS:          0  HIT:          0  MISS:          0  iACCESS:          0  iHIT:          0  iMISS:          0  dACCESS:          0  dHIT:          0  dMISS:          0  itACCESS:          0  itHIT:          0  itMISS:          0  dtACCESS:          0  dtHIT:          0  dtMISS:          0
cpu0_DTLB TRANSLATION  ACCESS:          0  HIT:          0  MISS:          0  iACCESS:          0  iHIT:          0  iMISS:          0  dACCESS:          0  dHIT:          0  dMISS:          0  itACCESS:          0  itHIT:          0  itMISS:          0  dtACCESS:          0  dtHIT:          0  dtMISS:          0
cpu0_DTLB PREFETCH  REQUESTED:          0  ISSUED:          0  CROSSED:          0  USEFUL:          0  USELESS:          0
cpu0_DTLB AVERAGE iMISS LATENCY: 0 cycles
cpu0_DTLB AVERAGE dMISS LATENCY: 11.3083 cycles
cpu0_DTLB AVERAGE itMISS LATENCY: 0 cycles
cpu0_DTLB AVERAGE dtMISS LATENCY: 0 cycles
cpu0_DTLB PAGE CROSSINGS (TLB HIT):         0 
cpu0_DTLB PAGE CROSSINGS (TLB MISS):         0 
cpu0_DTLB AVERAGE MISS LATENCY: 11.3083 cycles
cpu0_STLB TOTAL       ACCESS:    1625706  HIT:    1476469  MISS:     149237  iACCESS:     381074  iHIT:     371009  iMISS:      10065  dACCESS:    1244632  dHIT:    1105460  dMISS:     139172  itACCESS:          0  itHIT:          0  itMISS:          0  dtACCESS:          0  dtHIT:          0  dtMISS:          0
cpu0_STLB LOAD         ACCESS:    1625706  HIT:    1476469  MISS:     149237  iACCESS:     381074  iHIT:     371009  iMISS:      10065  dACCESS:    1244632  dHIT:    1105460  dMISS:     139172  itACCESS:          0  itHIT:          0  itMISS:          0  dtACCESS:          0  dtHIT:          0  dtMISS:          0
cpu0_STLB RFO          ACCESS:          0  HIT:          0  MISS:          0  iACCESS:          0  iHIT:          0  iMISS:          0  dACCESS:          0  dHIT:          0  dMISS:          0  itACCESS:          0  itHIT:          0  itMISS:          0  dtACCESS:          0  dtHIT:          0  dtMISS:          0
cpu0_STLB PREFETCH     ACCESS:          0  HIT:          0  MISS:          0  iACCESS:          0  iHIT:          0  iMISS:          0  dACCESS:          0  dHIT:          0  dMISS:          0  itACCESS:          0  itHIT:          0  itMISS:          0  dtACCESS:          0  dtHIT:          0  dtMISS:          0
cpu0_STLB WRITE        ACCESS:          0  HIT:          0  MISS:          0  iACCESS:          0  iHIT:          0  iMISS:          0  dACCESS:          0  dHIT:          0  dMISS:          0  itACCESS:          0  itHIT:          0  itMISS:          0  dtACCESS:          0  dtHIT:          0  dtMISS:          0
cpu0_STLB TRANSLATION  ACCESS:          0  HIT:          0  MISS:          0  iACCESS:          0  iHIT:          0  iMISS:          0  dACCESS:          0  dHIT:          0  dMISS:          0  itACCESS:          0  itHIT:          0  itMISS:          0  dtACCESS:          0  dtHIT:          0  dtMISS:          0
cpu0_STLB PREFETCH  REQUESTED:          0  ISSUED:          0  CROSSED:          0  USEFUL:          0  USELESS:          0
cpu0_STLB AVERAGE iMISS LATENCY: 6.4717 cycles
cpu0_STLB AVERAGE dMISS LATENCY: 91.4355 cycles
cpu0_STLB AVERAGE itMISS LATENCY: 0 cycles
cpu0_STLB AVERAGE dtMISS LATENCY: 0 cycles
cpu0_STLB PAGE CROSSINGS (TLB HIT):         0 
cpu0_STLB PAGE CROSSINGS (TLB MISS):         0 
cpu0_STLB AVERAGE MISS LATENCY: 97.9072 cycles
cpu0_L1D TOTAL       ACCESS:   41554656  HIT:   38119924  MISS:    3434732  iACCESS:          0  iHIT:          0  iMISS:          0  dACCESS:   41337480  dHIT:   38106256  dMISS:    3231224  itACCESS:      11694  itHIT:        919  itMISS:      10775  dtACCESS:     205482  dtHIT:      12749  dtMISS:     192733
cpu0_L1D LOAD         ACCESS:   18955945  HIT:   17483000  MISS:    1472945  iACCESS:          0  iHIT:          0  iMISS:          0  dACCESS:   18955945  dHIT:   17483000  dMISS:    1472945  itACCESS:          0  itHIT:          0  itMISS:          0  dtACCESS:          0  dtHIT:          0  dtMISS:          0
cpu0_L1D RFO          ACCESS:          0  HIT:          0  MISS:          0  iACCESS:          0  iHIT:          0  iMISS:          0  dACCESS:          0  dHIT:          0  dMISS:          0  itACCESS:          0  itHIT:          0  itMISS:          0  dtACCESS:          0  dtHIT:          0  dtMISS:          0
cpu0_L1D PREFETCH     ACCESS:   12220392  HIT:   10878760  MISS:    1341632  iACCESS:          0  iHIT:          0  iMISS:          0  dACCESS:   12220392  dHIT:   10878760  dMISS:    1341632  itACCESS:          0  itHIT:          0  itMISS:          0  dtACCESS:          0  dtHIT:          0  dtMISS:          0
cpu0_L1D WRITE        ACCESS:   10161143  HIT:    9744496  MISS:     416647  iACCESS:          0  iHIT:          0  iMISS:          0  dACCESS:   10161143  dHIT:    9744496  dMISS:     416647  itACCESS:          0  itHIT:          0  itMISS:          0  dtACCESS:          0  dtHIT:          0  dtMISS:          0
cpu0_L1D TRANSLATION  ACCESS:     217176  HIT:      13668  MISS:     203508  iACCESS:          0  iHIT:          0  iMISS:          0  dACCESS:          0  dHIT:          0  dMISS:          0  itACCESS:      11694  itHIT:        919  itMISS:      10775  dtACCESS:     205482  dtHIT:      12749  dtMISS:     192733
cpu0_L1D PREFETCH  REQUESTED:   18955945  ISSUED:   17073008  CROSSED:          0  USEFUL:     305753  USELESS:     702020
cpu0_L1D AVERAGE iMISS LATENCY: 0 cycles
cpu0_L1D AVERAGE dMISS LATENCY: 34.6307 cycles
cpu0_L1D AVERAGE itMISS LATENCY: 0.247369 cycles
cpu0_L1D AVERAGE dtMISS LATENCY: 3.15963 cycles
cpu0_L1D PAGE CROSSINGS (TLB HIT):         0 
cpu0_L1D PAGE CROSSINGS (TLB MISS):         0 
cpu0_L1D AVERAGE MISS LATENCY: 38.0377 cycles
cpu0_L2C TOTAL       ACCESS:    7005225  HIT:    1673359  MISS:    5331866  iACCESS:    3310449  iHIT:     861077  iMISS:    2449372  dACCESS:    3499564  dHIT:     709172  dMISS:    2790392  itACCESS:      10775  itHIT:       5465  itMISS:       5310  dtACCESS:     184437  dtHIT:      97645  dtMISS:      86792
cpu0_L2C LOAD         ACCESS:    1698413  HIT:     287624  MISS:    1410789  iACCESS:     771601  iHIT:     137930  iMISS:     633671  dACCESS:     926812  dHIT:     149694  dMISS:     777118  itACCESS:          0  itHIT:          0  itMISS:          0  dtACCESS:          0  dtHIT:          0  dtMISS:          0
cpu0_L2C RFO          ACCESS:     158598  HIT:      52000  MISS:     106598  iACCESS:          0  iHIT:          0  iMISS:          0  dACCESS:     158598  dHIT:      52000  dMISS:     106598  itACCESS:          0  itHIT:          0  itMISS:          0  dtACCESS:          0  dtHIT:          0  dtMISS:          0
cpu0_L2C PREFETCH     ACCESS:    4674423  HIT:    1094358  MISS:    3580065  iACCESS:    2538848  iHIT:     723147  iMISS:    1815701  dACCESS:    2135575  dHIT:     371211  dMISS:    1764364  itACCESS:          0  itHIT:          0  itMISS:          0  dtACCESS:          0  dtHIT:          0  dtMISS:          0
cpu0_L2C WRITE        ACCESS:     278579  HIT:     136267  MISS:     142312  iACCESS:          0  iHIT:          0  iMISS:          0  dACCESS:     278579  dHIT:     136267  dMISS:     142312  itACCESS:          0  itHIT:          0  itMISS:          0  dtACCESS:          0  dtHIT:          0  dtMISS:          0
cpu0_L2C TRANSLATION  ACCESS:     195212  HIT:     103110  MISS:      92102  iACCESS:          0  iHIT:          0  iMISS:          0  dACCESS:          0  dHIT:          0  dMISS:          0  itACCESS:      10775  itHIT:       5465  itMISS:       5310  dtACCESS:     184437  dtHIT:      97645  dtMISS:      86792
cpu0_L2C PREFETCH  REQUESTED:    1389131  ISSUED:    1389131  CROSSED:          0  USEFUL:     409045  USELESS:     379291
cpu0_L2C AVERAGE iMISS LATENCY: 15.5612 cycles
cpu0_L2C AVERAGE dMISS LATENCY: 26.2559 cycles
cpu0_L2C AVERAGE itMISS LATENCY: 0.140125 cycles
cpu0_L2C AVERAGE dtMISS LATENCY: 1.70591 cycles
cpu0_L2C PAGE CROSSINGS (TLB HIT):         0 
cpu0_L2C PAGE CROSSINGS (TLB MISS):         0 
cpu0_L2C AVERAGE MISS LATENCY: 43.6631 cycles
LLC TOTAL       ACCESS:    5210392  HIT:    4346075  MISS:     864317  iACCESS:    2393560  iHIT:    2142457  iMISS:     251103  dACCESS:    2724730  dHIT:    2157060  dMISS:     567670  itACCESS:       5310  itHIT:       1604  itMISS:       3706  dtACCESS:      86792  dtHIT:      44954  dtMISS:      41838
LLC LOAD         ACCESS:    1408926  HIT:    1219827  MISS:     189099  iACCESS:     632401  iHIT:     582068  iMISS:      50333  dACCESS:     776525  dHIT:     637759  dMISS:     138766  itACCESS:          0  itHIT:          0  itMISS:          0  dtACCESS:          0  dtHIT:          0  dtMISS:          0
LLC RFO          ACCESS:     106597  HIT:      70488  MISS:      36109  iACCESS:          0  iHIT:          0  iMISS:          0  dACCESS:     106597  dHIT:      70488  dMISS:      36109  itACCESS:          0  itHIT:          0  itMISS:          0  dtACCESS:          0  dtHIT:          0  dtMISS:          0
LLC PREFETCH     ACCESS:    3467730  HIT:    2883471  MISS:     584259  iACCESS:    1761159  iHIT:    1560389  iMISS:     200770  dACCESS:    1706571  dHIT:    1323082  dMISS:     383489  itACCESS:          0  itHIT:          0  itMISS:          0  dtACCESS:          0  dtHIT:          0  dtMISS:          0
LLC WRITE        ACCESS:     135037  HIT:     125731  MISS:       9306  iACCESS:          0  iHIT:          0  iMISS:          0  dACCESS:     135037  dHIT:     125731  dMISS:       9306  itACCESS:          0  itHIT:          0  itMISS:          0  dtACCESS:          0  dtHIT:          0  dtMISS:          0
LLC TRANSLATION  ACCESS:      92102  HIT:      46558  MISS:      45544  iACCESS:          0  iHIT:          0  iMISS:          0  dACCESS:          0  dHIT:          0  dMISS:          0  itACCESS:       5310  itHIT:       1604  itMISS:       3706  dtACCESS:      86792  dtHIT:      44954  dtMISS:      41838
LLC PREFETCH  REQUESTED:          0  ISSUED:          0  CROSSED:          0  USEFUL:          0  USELESS:          0
LLC AVERAGE iMISS LATENCY: 42.5678 cycles
LLC AVERAGE dMISS LATENCY: 104.099 cycles
LLC AVERAGE itMISS LATENCY: 0.743797 cycles
LLC AVERAGE dtMISS LATENCY: 8.56836 cycles
LLC PAGE CROSSINGS (TLB HIT):         0 
LLC PAGE CROSSINGS (TLB MISS):         0 
LLC AVERAGE MISS LATENCY: 155.979 cycles

PageTableWalker TOTAL       ACCESS:      73686  
PageTableWalker AVERAGE LATENCY: 5.0791 cycles
PageTableWalker TOTAL LATENCY: 374258 cycles

DRAM Statistics
Channel 0
 RQ ROW_BUFFER_HIT:     240676
  ROW_BUFFER_MISS:     614290
 AVG DBUS CONGESTED CYCLE:    3.62148
 WQ ROW_BUFFER_HIT:      16954
  ROW_BUFFER_MISS:      21589  FULL:          0

