last_page:0x200000000000000
VMEM_RES_CAP:0x100000
PAGE_SIZE:4096
LOG2_PAGE_SIZE:12
LOG2_PAGE_TABLE_SIZE:9
page_table_levels:5
WARNING: physical memory size is smaller than virtual memory size
FDiP enabled with aggresivity 16

*** ChampSim Multicore Out-of-Order Simulator ***

Warmup Instructions: 50000000
Simulation Instructions: 100000000
Number of CPUs: 1
Small page size: 4096
Large page size: 2097152

CPU 0 Bimodal branch predictor
Basic BTB sets: 1024 ways: 8 indirect buffer size: 4096 RAS size: 64
Instruction page size distrubution: 0
Loading instruction page size distribution from /home/bsc/bsc018186/scratch/itp_asplos25_AE/dump/srv442_ap.pdst
Data page size distrubution: 0
Loading data page size distribution from /home/bsc/bsc018186/scratch/itp_asplos25_AE/dump/srv442_ap.pdst
cpu0_L2C IP-based stride prefetcher
cpu0_L1D next line prefetcher
cpu0_L1I next line prefetcher
Off-chip DRAM Size: 4 GiB Channels: 1 Width: 64-bit Data Rate: 3200 MT/s
Heartbeat CPU 0 instructions: 10000000 cycles: 2500207 heartbeat IPC: 3.99967 cumulative IPC: 3.99967 (Simulation time: 0 hr 0 min 34 sec) 
Heartbeat CPU 0 instructions: 20000000 cycles: 5000258 heartbeat IPC: 3.99992 cumulative IPC: 3.9998 (Simulation time: 0 hr 1 min 11 sec) 
Heartbeat CPU 0 instructions: 30000001 cycles: 7500359 heartbeat IPC: 3.99984 cumulative IPC: 3.99981 (Simulation time: 0 hr 1 min 48 sec) 
Heartbeat CPU 0 instructions: 40000000 cycles: 10000436 heartbeat IPC: 3.99988 cumulative IPC: 3.99983 (Simulation time: 0 hr 2 min 25 sec) 
Heartbeat CPU 0 instructions: 50000003 cycles: 12500441 heartbeat IPC: 4 cumulative IPC: 3.99986 (Simulation time: 0 hr 3 min 2 sec) 
Warmup finished CPU 0 instructions: 50000003 cycles: 12500442 cumulative IPC: 3.99986 (Simulation time: 0 hr 3 min 2 sec) 

Warmup complete CPU 0 instructions: 50000003 cycles: 12500442 (Simulation time: 0 hr 3 min 2 sec) 

Heartbeat CPU 0 instructions: 60000002 cycles: 33806303 heartbeat IPC: 0.469355 cumulative IPC: 0.469355 (Simulation time: 0 hr 4 min 10 sec) 
Heartbeat CPU 0 instructions: 70000004 cycles: 55352488 heartbeat IPC: 0.46412 cumulative IPC: 0.466723 (Simulation time: 0 hr 5 min 19 sec) 
Heartbeat CPU 0 instructions: 80000001 cycles: 76319104 heartbeat IPC: 0.476949 cumulative IPC: 0.470082 (Simulation time: 0 hr 6 min 26 sec) 
Heartbeat CPU 0 instructions: 90000000 cycles: 96541582 heartbeat IPC: 0.4945 cumulative IPC: 0.475958 (Simulation time: 0 hr 7 min 33 sec) 
Heartbeat CPU 0 instructions: 100000002 cycles: 116957863 heartbeat IPC: 0.489806 cumulative IPC: 0.478664 (Simulation time: 0 hr 8 min 41 sec) 
*** Reached end of trace: /gpfs/projects/bsc18/MN4/bsc18/romol/ChampSim/traces/qualcomm_srv/srv442_ap.champsimtrace.xz
Heartbeat CPU 0 instructions: 110000001 cycles: 137597402 heartbeat IPC: 0.484507 cumulative IPC: 0.479628 (Simulation time: 0 hr 9 min 48 sec) 
Heartbeat CPU 0 instructions: 120000004 cycles: 158283347 heartbeat IPC: 0.483421 cumulative IPC: 0.480167 (Simulation time: 0 hr 10 min 56 sec) 
Heartbeat CPU 0 instructions: 130000004 cycles: 179252483 heartbeat IPC: 0.476892 cumulative IPC: 0.479755 (Simulation time: 0 hr 12 min 4 sec) 
Heartbeat CPU 0 instructions: 140000000 cycles: 200910264 heartbeat IPC: 0.461728 cumulative IPC: 0.477683 (Simulation time: 0 hr 13 min 14 sec) 
Heartbeat CPU 0 instructions: 150000000 cycles: 220823873 heartbeat IPC: 0.50217 cumulative IPC: 0.480023 (Simulation time: 0 hr 14 min 21 sec) 
Simulation finished CPU 0 instructions: 100000000 cycles: 208323434 cumulative IPC: 0.480023 (Simulation time: 0 hr 14 min 21 sec) 

Simulation complete CPU 0 instructions: 100000000 cycles: 208323434 (Simulation time: 0 hr 14 min 21 sec) 


ChampSim completed all CPUs

Saving instructions large page distribution to /home/bsc/bsc018186/scratch/itp_asplos25_AE/dump/srv442_ap.pdst...
Saving data large page distribution to /home/bsc/bsc018186/scratch/itp_asplos25_AE/dump/srv442_ap.pdst...
=== Simulation ===
CPU 0 runs /gpfs/projects/bsc18/MN4/bsc18/romol/ChampSim/traces/qualcomm_srv/srv442_ap.champsimtrace.xz

Region of Interest Statistics

CPU 0 cumulative IPC: 0.480023 instructions: 100000000 cycles: 208323434
CPU 0 Branch Prediction Accuracy: 79.7214% MPKI: 36.634 Average ROB Occupancy at Mispredict: 10.5516
Branch type MPKI
BRANCH_DIRECT_JUMP: 1.39273
BRANCH_INDIRECT: 18.323
BRANCH_CONDITIONAL: 11.8127
BRANCH_DIRECT_CALL: 2.62396
BRANCH_INDIRECT_CALL: 0.679551
BRANCH_RETURN: 1.80207

Instructions large pages: 0
Instructions small pages: 1142
Large page distribution for instructions: 0%

Data large pages: 0
Data small pages: 5076
Large page distribution for data: 0%

cpu0_L1I TOTAL       ACCESS:   35977783  HIT:   27922745  MISS:    8055038  iACCESS:   35977783  iHIT:   27922745  iMISS:    8055038  dACCESS:          0  dHIT:          0  dMISS:          0  itACCESS:          0  itHIT:          0  itMISS:          0  dtACCESS:          0  dtHIT:          0  dtMISS:          0
cpu0_L1I LOAD         ACCESS:   10478145  HIT:    8268921  MISS:    2209224  iACCESS:   10478145  iHIT:    8268921  iMISS:    2209224  dACCESS:          0  dHIT:          0  dMISS:          0  itACCESS:          0  itHIT:          0  itMISS:          0  dtACCESS:          0  dtHIT:          0  dtMISS:          0
cpu0_L1I RFO          ACCESS:          0  HIT:          0  MISS:          0  iACCESS:          0  iHIT:          0  iMISS:          0  dACCESS:          0  dHIT:          0  dMISS:          0  itACCESS:          0  itHIT:          0  itMISS:          0  dtACCESS:          0  dtHIT:          0  dtMISS:          0
cpu0_L1I PREFETCH     ACCESS:   25499638  HIT:   19653824  MISS:    5845814  iACCESS:   25499638  iHIT:   19653824  iMISS:    5845814  dACCESS:          0  dHIT:          0  dMISS:          0  itACCESS:          0  itHIT:          0  itMISS:          0  dtACCESS:          0  dtHIT:          0  dtMISS:          0
cpu0_L1I WRITE        ACCESS:          0  HIT:          0  MISS:          0  iACCESS:          0  iHIT:          0  iMISS:          0  dACCESS:          0  dHIT:          0  dMISS:          0  itACCESS:          0  itHIT:          0  itMISS:          0  dtACCESS:          0  dtHIT:          0  dtMISS:          0
cpu0_L1I TRANSLATION  ACCESS:          0  HIT:          0  MISS:          0  iACCESS:          0  iHIT:          0  iMISS:          0  dACCESS:          0  dHIT:          0  dMISS:          0  itACCESS:          0  itHIT:          0  itMISS:          0  dtACCESS:          0  dtHIT:          0  dtMISS:          0
cpu0_L1I PREFETCH  REQUESTED:   28004492  ISSUED:   28004492  CROSSED:          0  USEFUL:    2036300  USELESS:     665943
cpu0_L1I AVERAGE iMISS LATENCY: 19.0832 cycles
cpu0_L1I AVERAGE dMISS LATENCY: 0 cycles
cpu0_L1I AVERAGE itMISS LATENCY: 0 cycles
cpu0_L1I AVERAGE dtMISS LATENCY: 0 cycles
cpu0_L1I PAGE CROSSINGS (TLB HIT):         0 
cpu0_L1I PAGE CROSSINGS (TLB MISS):         0 
cpu0_L1I AVERAGE MISS LATENCY: 19.0832 cycles
cpu0_ITLB TOTAL       ACCESS:   30296941  HIT:   28321708  MISS:    1975233  iACCESS:   30296941  iHIT:   28321708  iMISS:    1975233  dACCESS:          0  dHIT:          0  dMISS:          0  itACCESS:          0  itHIT:          0  itMISS:          0  dtACCESS:          0  dtHIT:          0  dtMISS:          0
cpu0_ITLB LOAD         ACCESS:   30296941  HIT:   28321708  MISS:    1975233  iACCESS:   30296941  iHIT:   28321708  iMISS:    1975233  dACCESS:          0  dHIT:          0  dMISS:          0  itACCESS:          0  itHIT:          0  itMISS:          0  dtACCESS:          0  dtHIT:          0  dtMISS:          0
cpu0_ITLB RFO          ACCESS:          0  HIT:          0  MISS:          0  iACCESS:          0  iHIT:          0  iMISS:          0  dACCESS:          0  dHIT:          0  dMISS:          0  itACCESS:          0  itHIT:          0  itMISS:          0  dtACCESS:          0  dtHIT:          0  dtMISS:          0
cpu0_ITLB PREFETCH     ACCESS:          0  HIT:          0  MISS:          0  iACCESS:          0  iHIT:          0  iMISS:          0  dACCESS:          0  dHIT:          0  dMISS:          0  itACCESS:          0  itHIT:          0  itMISS:          0  dtACCESS:          0  dtHIT:          0  dtMISS:          0
cpu0_ITLB WRITE        ACCESS:          0  HIT:          0  MISS:          0  iACCESS:          0  iHIT:          0  iMISS:          0  dACCESS:          0  dHIT:          0  dMISS:          0  itACCESS:          0  itHIT:          0  itMISS:          0  dtACCESS:          0  dtHIT:          0  dtMISS:          0
cpu0_ITLB TRANSLATION  ACCESS:          0  HIT:          0  MISS:          0  iACCESS:          0  iHIT:          0  iMISS:          0  dACCESS:          0  dHIT:          0  dMISS:          0  itACCESS:          0  itHIT:          0  itMISS:          0  dtACCESS:          0  dtHIT:          0  dtMISS:          0
cpu0_ITLB PREFETCH  REQUESTED:          0  ISSUED:          0  CROSSED:          0  USEFUL:     333650  USELESS:      67160
cpu0_ITLB AVERAGE iMISS LATENCY: 7.76157 cycles
cpu0_ITLB AVERAGE dMISS LATENCY: 0 cycles
cpu0_ITLB AVERAGE itMISS LATENCY: 0 cycles
cpu0_ITLB AVERAGE dtMISS LATENCY: 0 cycles
cpu0_ITLB PAGE CROSSINGS (TLB HIT):         0 
cpu0_ITLB PAGE CROSSINGS (TLB MISS):         0 
cpu0_ITLB AVERAGE MISS LATENCY: 7.76157 cycles
cpu0_DTLB TOTAL       ACCESS:   27960056  HIT:   25983146  MISS:    1976910  iACCESS:          0  iHIT:          0  iMISS:          0  dACCESS:   27960056  dHIT:   25983146  dMISS:    1976910  itACCESS:          0  itHIT:          0  itMISS:          0  dtACCESS:          0  dtHIT:          0  dtMISS:          0
cpu0_DTLB LOAD         ACCESS:   27960056  HIT:   25983146  MISS:    1976910  iACCESS:          0  iHIT:          0  iMISS:          0  dACCESS:   27960056  dHIT:   25983146  dMISS:    1976910  itACCESS:          0  itHIT:          0  itMISS:          0  dtACCESS:          0  dtHIT:          0  dtMISS:          0
cpu0_DTLB RFO          ACCESS:          0  HIT:          0  MISS:          0  iACCESS:          0  iHIT:          0  iMISS:          0  dACCESS:          0  dHIT:          0  dMISS:          0  itACCESS:          0  itHIT:          0  itMISS:          0  dtACCESS:          0  dtHIT:          0  dtMISS:          0
cpu0_DTLB PREFETCH     ACCESS:          0  HIT:          0  MISS:          0  iACCESS:          0  iHIT:          0  iMISS:          0  dACCESS:          0  dHIT:          0  dMISS:          0  itACCESS:          0  itHIT:          0  itMISS:          0  dtACCESS:          0  dtHIT:          0  dtMISS:          0
cpu0_DTLB WRITE        ACCESS:          0  HIT:          0  MISS:          0  iACCESS:          0  iHIT:          0  iMISS:          0  dACCESS:          0  dHIT:          0  dMISS:          0  itACCESS:          0  itHIT:          0  itMISS:          0  dtACCESS:          0  dtHIT:          0  dtMISS:          0
cpu0_DTLB TRANSLATION  ACCESS:          0  HIT:          0  MISS:          0  iACCESS:          0  iHIT:          0  iMISS:          0  dACCESS:          0  dHIT:          0  dMISS:          0  itACCESS:          0  itHIT:          0  itMISS:          0  dtACCESS:          0  dtHIT:          0  dtMISS:          0
cpu0_DTLB PREFETCH  REQUESTED:          0  ISSUED:          0  CROSSED:          0  USEFUL:          0  USELESS:          0
cpu0_DTLB AVERAGE iMISS LATENCY: 0 cycles
cpu0_DTLB AVERAGE dMISS LATENCY: 20.0376 cycles
cpu0_DTLB AVERAGE itMISS LATENCY: 0 cycles
cpu0_DTLB AVERAGE dtMISS LATENCY: 0 cycles
cpu0_DTLB PAGE CROSSINGS (TLB HIT):         0 
cpu0_DTLB PAGE CROSSINGS (TLB MISS):         0 
cpu0_DTLB AVERAGE MISS LATENCY: 20.0376 cycles
cpu0_STLB TOTAL       ACCESS:    1635330  HIT:    1401868  MISS:     233462  iACCESS:     400813  iHIT:     311300  iMISS:      89513  dACCESS:    1234517  dHIT:    1090568  dMISS:     143949  itACCESS:          0  itHIT:          0  itMISS:          0  dtACCESS:          0  dtHIT:          0  dtMISS:          0
cpu0_STLB LOAD         ACCESS:    1635330  HIT:    1401868  MISS:     233462  iACCESS:     400813  iHIT:     311300  iMISS:      89513  dACCESS:    1234517  dHIT:    1090568  dMISS:     143949  itACCESS:          0  itHIT:          0  itMISS:          0  dtACCESS:          0  dtHIT:          0  dtMISS:          0
cpu0_STLB RFO          ACCESS:          0  HIT:          0  MISS:          0  iACCESS:          0  iHIT:          0  iMISS:          0  dACCESS:          0  dHIT:          0  dMISS:          0  itACCESS:          0  itHIT:          0  itMISS:          0  dtACCESS:          0  dtHIT:          0  dtMISS:          0
cpu0_STLB PREFETCH     ACCESS:          0  HIT:          0  MISS:          0  iACCESS:          0  iHIT:          0  iMISS:          0  dACCESS:          0  dHIT:          0  dMISS:          0  itACCESS:          0  itHIT:          0  itMISS:          0  dtACCESS:          0  dtHIT:          0  dtMISS:          0
cpu0_STLB WRITE        ACCESS:          0  HIT:          0  MISS:          0  iACCESS:          0  iHIT:          0  iMISS:          0  dACCESS:          0  dHIT:          0  dMISS:          0  itACCESS:          0  itHIT:          0  itMISS:          0  dtACCESS:          0  dtHIT:          0  dtMISS:          0
cpu0_STLB TRANSLATION  ACCESS:          0  HIT:          0  MISS:          0  iACCESS:          0  iHIT:          0  iMISS:          0  dACCESS:          0  dHIT:          0  dMISS:          0  itACCESS:          0  itHIT:          0  itMISS:          0  dtACCESS:          0  dtHIT:          0  dtMISS:          0
cpu0_STLB PREFETCH  REQUESTED:          0  ISSUED:          0  CROSSED:          0  USEFUL:          0  USELESS:          0
cpu0_STLB AVERAGE iMISS LATENCY: 51.9768 cycles
cpu0_STLB AVERAGE dMISS LATENCY: 127.436 cycles
cpu0_STLB AVERAGE itMISS LATENCY: 0 cycles
cpu0_STLB AVERAGE dtMISS LATENCY: 0 cycles
cpu0_STLB PAGE CROSSINGS (TLB HIT):         0 
cpu0_STLB PAGE CROSSINGS (TLB MISS):         0 
cpu0_STLB AVERAGE MISS LATENCY: 179.413 cycles
cpu0_L1D TOTAL       ACCESS:   42725377  HIT:   38516107  MISS:    4209270  iACCESS:          0  iHIT:          0  iMISS:          0  dACCESS:   42433496  dHIT:   38492030  dMISS:    3941466  itACCESS:      95558  itHIT:      12939  itMISS:      82619  dtACCESS:     196323  dtHIT:      11138  dtMISS:     185185
cpu0_L1D LOAD         ACCESS:   19389656  HIT:   17590354  MISS:    1799302  iACCESS:          0  iHIT:          0  iMISS:          0  dACCESS:   19389656  dHIT:   17590354  dMISS:    1799302  itACCESS:          0  itHIT:          0  itMISS:          0  dtACCESS:          0  dtHIT:          0  dtMISS:          0
cpu0_L1D RFO          ACCESS:          0  HIT:          0  MISS:          0  iACCESS:          0  iHIT:          0  iMISS:          0  dACCESS:          0  dHIT:          0  dMISS:          0  itACCESS:          0  itHIT:          0  itMISS:          0  dtACCESS:          0  dtHIT:          0  dtMISS:          0
cpu0_L1D PREFETCH     ACCESS:   12881313  HIT:   11211349  MISS:    1669964  iACCESS:          0  iHIT:          0  iMISS:          0  dACCESS:   12881313  dHIT:   11211349  dMISS:    1669964  itACCESS:          0  itHIT:          0  itMISS:          0  dtACCESS:          0  dtHIT:          0  dtMISS:          0
cpu0_L1D WRITE        ACCESS:   10162527  HIT:    9690327  MISS:     472200  iACCESS:          0  iHIT:          0  iMISS:          0  dACCESS:   10162527  dHIT:    9690327  dMISS:     472200  itACCESS:          0  itHIT:          0  itMISS:          0  dtACCESS:          0  dtHIT:          0  dtMISS:          0
cpu0_L1D TRANSLATION  ACCESS:     291881  HIT:      24077  MISS:     267804  iACCESS:          0  iHIT:          0  iMISS:          0  dACCESS:          0  dHIT:          0  dMISS:          0  itACCESS:      95558  itHIT:      12939  itMISS:      82619  dtACCESS:     196323  dtHIT:      11138  dtMISS:     185185
cpu0_L1D PREFETCH  REQUESTED:   19389656  ISSUED:   17335937  CROSSED:          0  USEFUL:     312876  USELESS:     715809
cpu0_L1D AVERAGE iMISS LATENCY: 0 cycles
cpu0_L1D AVERAGE dMISS LATENCY: 40.172 cycles
cpu0_L1D AVERAGE itMISS LATENCY: 2.69661 cycles
cpu0_L1D AVERAGE dtMISS LATENCY: 6.57804 cycles
cpu0_L1D PAGE CROSSINGS (TLB HIT):         0 
cpu0_L1D PAGE CROSSINGS (TLB MISS):         0 
cpu0_L1D AVERAGE MISS LATENCY: 49.4467 cycles
cpu0_L2C TOTAL       ACCESS:    7433822  HIT:    3707306  MISS:    3726516  iACCESS:    3451496  iHIT:    2056151  iMISS:    1395345  dACCESS:    3718905  dHIT:    1612454  dMISS:    2106451  itACCESS:      82619  itHIT:      15634  itMISS:      66985  dtACCESS:     180802  dtHIT:      23067  dtMISS:     157735
cpu0_L2C LOAD         ACCESS:    1755000  HIT:     908873  MISS:     846127  iACCESS:     787936  iHIT:     498200  iMISS:     289736  dACCESS:     967064  dHIT:     410673  dMISS:     556391  itACCESS:          0  itHIT:          0  itMISS:          0  dtACCESS:          0  dtHIT:          0  dtMISS:          0
cpu0_L2C RFO          ACCESS:     163119  HIT:      62153  MISS:     100966  iACCESS:          0  iHIT:          0  iMISS:          0  dACCESS:     163119  dHIT:      62153  dMISS:     100966  itACCESS:          0  itHIT:          0  itMISS:          0  dtACCESS:          0  dtHIT:          0  dtMISS:          0
cpu0_L2C PREFETCH     ACCESS:    4975203  HIT:    2422004  MISS:    2553199  iACCESS:    2663560  iHIT:    1557951  iMISS:    1105609  dACCESS:    2311643  dHIT:     864053  dMISS:    1447590  itACCESS:          0  itHIT:          0  itMISS:          0  dtACCESS:          0  dtHIT:          0  dtMISS:          0
cpu0_L2C WRITE        ACCESS:     277079  HIT:     275575  MISS:       1504  iACCESS:          0  iHIT:          0  iMISS:          0  dACCESS:     277079  dHIT:     275575  dMISS:       1504  itACCESS:          0  itHIT:          0  itMISS:          0  dtACCESS:          0  dtHIT:          0  dtMISS:          0
cpu0_L2C TRANSLATION  ACCESS:     263421  HIT:      38701  MISS:     224720  iACCESS:          0  iHIT:          0  iMISS:          0  dACCESS:          0  dHIT:          0  dMISS:          0  itACCESS:      82619  itHIT:      15634  itMISS:      66985  dtACCESS:     180802  dtHIT:      23067  dtMISS:     157735
cpu0_L2C PREFETCH  REQUESTED:    1556623  ISSUED:    1556577  CROSSED:          0  USEFUL:     388125  USELESS:     314010
cpu0_L2C AVERAGE iMISS LATENCY: 32.9609 cycles
cpu0_L2C AVERAGE dMISS LATENCY: 58.4328 cycles
cpu0_L2C AVERAGE itMISS LATENCY: 2.82777 cycles
cpu0_L2C AVERAGE dtMISS LATENCY: 6.94842 cycles
cpu0_L2C PAGE CROSSINGS (TLB HIT):         0 
cpu0_L2C PAGE CROSSINGS (TLB MISS):         0 
cpu0_L2C AVERAGE MISS LATENCY: 101.17 cycles
LLC TOTAL       ACCESS:    3683299  HIT:    1749873  MISS:    1933426  iACCESS:    1311826  iHIT:     654332  iMISS:     657494  dACCESS:    2146753  dHIT:    1044608  dMISS:    1102145  itACCESS:      66985  itHIT:      14437  itMISS:      52548  dtACCESS:     157735  dtHIT:      36496  dtMISS:     121239
LLC LOAD         ACCESS:     839703  HIT:     419402  MISS:     420301  iACCESS:     288506  iHIT:     145736  iMISS:     142770  dACCESS:     551197  dHIT:     273666  dMISS:     277531  itACCESS:          0  itHIT:          0  itMISS:          0  dtACCESS:          0  dtHIT:          0  dtMISS:          0
LLC RFO          ACCESS:     100956  HIT:      39878  MISS:      61078  iACCESS:          0  iHIT:          0  iMISS:          0  dACCESS:     100956  dHIT:      39878  dMISS:      61078  itACCESS:          0  itHIT:          0  itMISS:          0  dtACCESS:          0  dtHIT:          0  dtMISS:          0
LLC PREFETCH     ACCESS:    2364315  HIT:    1094836  MISS:    1269479  iACCESS:    1023320  iHIT:     508596  iMISS:     514724  dACCESS:    1340995  dHIT:     586240  dMISS:     754755  itACCESS:          0  itHIT:          0  itMISS:          0  dtACCESS:          0  dtHIT:          0  dtMISS:          0
LLC WRITE        ACCESS:     153605  HIT:     144824  MISS:       8781  iACCESS:          0  iHIT:          0  iMISS:          0  dACCESS:     153605  dHIT:     144824  dMISS:       8781  itACCESS:          0  itHIT:          0  itMISS:          0  dtACCESS:          0  dtHIT:          0  dtMISS:          0
LLC TRANSLATION  ACCESS:     224720  HIT:      50933  MISS:     173787  iACCESS:          0  iHIT:          0  iMISS:          0  dACCESS:          0  dHIT:          0  dMISS:          0  itACCESS:      66985  itHIT:      14437  itMISS:      52548  dtACCESS:     157735  dtHIT:      36496  dtMISS:     121239
LLC PREFETCH  REQUESTED:          0  ISSUED:          0  CROSSED:          0  USEFUL:          0  USELESS:          0
LLC AVERAGE iMISS LATENCY: 50.2769 cycles
LLC AVERAGE dMISS LATENCY: 93.3272 cycles
LLC AVERAGE itMISS LATENCY: 4.7672 cycles
LLC AVERAGE dtMISS LATENCY: 11.7873 cycles
LLC PAGE CROSSINGS (TLB HIT):         0 
LLC PAGE CROSSINGS (TLB MISS):         0 
LLC AVERAGE MISS LATENCY: 160.159 cycles

PageTableWalker TOTAL       ACCESS:     116829  
PageTableWalker AVERAGE LATENCY: 5.02483 cycles
PageTableWalker TOTAL LATENCY: 587045 cycles

DRAM Statistics
Channel 0
 RQ ROW_BUFFER_HIT:     524986
  ROW_BUFFER_MISS:    1384075
 AVG DBUS CONGESTED CYCLE:    3.63828
 WQ ROW_BUFFER_HIT:      38303
  ROW_BUFFER_MISS:      26480  FULL:          0

