last_page:0x200000000000000
VMEM_RES_CAP:0x100000
PAGE_SIZE:4096
LOG2_PAGE_SIZE:12
LOG2_PAGE_TABLE_SIZE:9
page_table_levels:5
WARNING: physical memory size is smaller than virtual memory size
FDiP enabled with aggresivity 16

*** ChampSim Multicore Out-of-Order Simulator ***

Warmup Instructions: 50000000
Simulation Instructions: 100000000
Number of CPUs: 1
Small page size: 4096
Large page size: 2097152

CPU 0 Bimodal branch predictor
Basic BTB sets: 1024 ways: 8 indirect buffer size: 4096 RAS size: 64
Instruction page size distrubution: 0
Loading instruction page size distribution from /home/bsc/bsc018186/scratch/itp_asplos25_AE/dump/srv426_ap.pdst
Data page size distrubution: 0
Loading data page size distribution from /home/bsc/bsc018186/scratch/itp_asplos25_AE/dump/srv426_ap.pdst
cpu0_L2C IP-based stride prefetcher
cpu0_L1D next line prefetcher
cpu0_STLB using iTP with max lru@8
cpu0_STLB using iTP with instr@0 and data@2
Init sat counter with 3 bits (max:50).
cpu0_L1I next line prefetcher
Off-chip DRAM Size: 4 GiB Channels: 1 Width: 64-bit Data Rate: 3200 MT/s
Heartbeat CPU 0 instructions: 10000003 cycles: 2501251 heartbeat IPC: 3.99801 cumulative IPC: 3.99801 (Simulation time: 0 hr 0 min 36 sec) 
Heartbeat CPU 0 instructions: 20000000 cycles: 5001852 heartbeat IPC: 3.99904 cumulative IPC: 3.99852 (Simulation time: 0 hr 1 min 15 sec) 
Heartbeat CPU 0 instructions: 30000002 cycles: 7503680 heartbeat IPC: 3.99708 cumulative IPC: 3.99804 (Simulation time: 0 hr 1 min 54 sec) 
Heartbeat CPU 0 instructions: 40000003 cycles: 10008135 heartbeat IPC: 3.99289 cumulative IPC: 3.99675 (Simulation time: 0 hr 2 min 33 sec) 
Heartbeat CPU 0 instructions: 50000001 cycles: 12508341 heartbeat IPC: 3.99967 cumulative IPC: 3.99734 (Simulation time: 0 hr 3 min 12 sec) 
Warmup finished CPU 0 instructions: 50000001 cycles: 12508342 cumulative IPC: 3.99734 (Simulation time: 0 hr 3 min 12 sec) 

Warmup complete CPU 0 instructions: 50000001 cycles: 12508342 (Simulation time: 0 hr 3 min 12 sec) 

Heartbeat CPU 0 instructions: 60000000 cycles: 34701037 heartbeat IPC: 0.450599 cumulative IPC: 0.450599 (Simulation time: 0 hr 4 min 25 sec) 
Heartbeat CPU 0 instructions: 70000000 cycles: 54789211 heartbeat IPC: 0.497806 cumulative IPC: 0.473028 (Simulation time: 0 hr 5 min 34 sec) 
Heartbeat CPU 0 instructions: 80000002 cycles: 73700631 heartbeat IPC: 0.528782 cumulative IPC: 0.490258 (Simulation time: 0 hr 6 min 43 sec) 
Heartbeat CPU 0 instructions: 90000000 cycles: 93848710 heartbeat IPC: 0.496326 cumulative IPC: 0.491761 (Simulation time: 0 hr 7 min 56 sec) 
Heartbeat CPU 0 instructions: 100000002 cycles: 115182558 heartbeat IPC: 0.468739 cumulative IPC: 0.486978 (Simulation time: 0 hr 9 min 10 sec) 
*** Reached end of trace: /gpfs/projects/bsc18/MN4/bsc18/romol/ChampSim/traces/qualcomm_srv/srv426_ap.champsimtrace.xz
Heartbeat CPU 0 instructions: 110000001 cycles: 134270106 heartbeat IPC: 0.523902 cumulative IPC: 0.492766 (Simulation time: 0 hr 10 min 20 sec) 
Heartbeat CPU 0 instructions: 120000001 cycles: 154369400 heartbeat IPC: 0.49753 cumulative IPC: 0.493441 (Simulation time: 0 hr 11 min 32 sec) 
Heartbeat CPU 0 instructions: 130000000 cycles: 176444271 heartbeat IPC: 0.453004 cumulative IPC: 0.487996 (Simulation time: 0 hr 12 min 48 sec) 
Heartbeat CPU 0 instructions: 140000000 cycles: 199175103 heartbeat IPC: 0.439932 cumulative IPC: 0.482143 (Simulation time: 0 hr 14 min 3 sec) 
Heartbeat CPU 0 instructions: 150000000 cycles: 219766714 heartbeat IPC: 0.485635 cumulative IPC: 0.48249 (Simulation time: 0 hr 15 min 16 sec) 
Simulation finished CPU 0 instructions: 100000001 cycles: 207258387 cumulative IPC: 0.48249 (Simulation time: 0 hr 15 min 16 sec) 

Simulation complete CPU 0 instructions: 100000001 cycles: 207258387 (Simulation time: 0 hr 15 min 16 sec) 


ChampSim completed all CPUs

Saving instructions large page distribution to /home/bsc/bsc018186/scratch/itp_asplos25_AE/dump/srv426_ap.pdst...
Saving data large page distribution to /home/bsc/bsc018186/scratch/itp_asplos25_AE/dump/srv426_ap.pdst...
=== Simulation ===
CPU 0 runs /gpfs/projects/bsc18/MN4/bsc18/romol/ChampSim/traces/qualcomm_srv/srv426_ap.champsimtrace.xz

Region of Interest Statistics

CPU 0 cumulative IPC: 0.48249 instructions: 100000001 cycles: 207258387
CPU 0 Branch Prediction Accuracy: 81.1561% MPKI: 34.1327 Average ROB Occupancy at Mispredict: 11.926
Branch type MPKI
BRANCH_DIRECT_JUMP: 1.088
BRANCH_INDIRECT: 16.565
BRANCH_CONDITIONAL: 11.8408
BRANCH_DIRECT_CALL: 2.01458
BRANCH_INDIRECT_CALL: 1.12873
BRANCH_RETURN: 1.49566

Instructions large pages: 0
Instructions small pages: 1248
Large page distribution for instructions: 0%

Data large pages: 0
Data small pages: 5192
Large page distribution for data: 0%

cpu0_L1I TOTAL       ACCESS:   31839213  HIT:   25172998  MISS:    6666215  iACCESS:   31839213  iHIT:   25172998  iMISS:    6666215  dACCESS:          0  dHIT:          0  dMISS:          0  itACCESS:          0  itHIT:          0  itMISS:          0  dtACCESS:          0  dtHIT:          0  dtMISS:          0
cpu0_L1I LOAD         ACCESS:    8522192  HIT:    6675976  MISS:    1846216  iACCESS:    8522192  iHIT:    6675976  iMISS:    1846216  dACCESS:          0  dHIT:          0  dMISS:          0  itACCESS:          0  itHIT:          0  itMISS:          0  dtACCESS:          0  dtHIT:          0  dtMISS:          0
cpu0_L1I RFO          ACCESS:          0  HIT:          0  MISS:          0  iACCESS:          0  iHIT:          0  iMISS:          0  dACCESS:          0  dHIT:          0  dMISS:          0  itACCESS:          0  itHIT:          0  itMISS:          0  dtACCESS:          0  dtHIT:          0  dtMISS:          0
cpu0_L1I PREFETCH     ACCESS:   23317021  HIT:   18497022  MISS:    4819999  iACCESS:   23317021  iHIT:   18497022  iMISS:    4819999  dACCESS:          0  dHIT:          0  dMISS:          0  itACCESS:          0  itHIT:          0  itMISS:          0  dtACCESS:          0  dtHIT:          0  dtMISS:          0
cpu0_L1I WRITE        ACCESS:          0  HIT:          0  MISS:          0  iACCESS:          0  iHIT:          0  iMISS:          0  dACCESS:          0  dHIT:          0  dMISS:          0  itACCESS:          0  itHIT:          0  itMISS:          0  dtACCESS:          0  dtHIT:          0  dtMISS:          0
cpu0_L1I TRANSLATION  ACCESS:          0  HIT:          0  MISS:          0  iACCESS:          0  iHIT:          0  iMISS:          0  dACCESS:          0  dHIT:          0  dMISS:          0  itACCESS:          0  itHIT:          0  itMISS:          0  dtACCESS:          0  dtHIT:          0  dtMISS:          0
cpu0_L1I PREFETCH  REQUESTED:   25283132  ISSUED:   25282942  CROSSED:          0  USEFUL:    1646238  USELESS:     562963
cpu0_L1I AVERAGE iMISS LATENCY: 21.7798 cycles
cpu0_L1I AVERAGE dMISS LATENCY: 0 cycles
cpu0_L1I AVERAGE itMISS LATENCY: 0 cycles
cpu0_L1I AVERAGE dtMISS LATENCY: 0 cycles
cpu0_L1I PAGE CROSSINGS (TLB HIT):         0 
cpu0_L1I PAGE CROSSINGS (TLB MISS):         0 
cpu0_L1I AVERAGE MISS LATENCY: 21.7798 cycles
cpu0_ITLB TOTAL       ACCESS:   27128523  HIT:   25479378  MISS:    1649145  iACCESS:   27128523  iHIT:   25479378  iMISS:    1649145  dACCESS:          0  dHIT:          0  dMISS:          0  itACCESS:          0  itHIT:          0  itMISS:          0  dtACCESS:          0  dtHIT:          0  dtMISS:          0
cpu0_ITLB LOAD         ACCESS:   27128523  HIT:   25479378  MISS:    1649145  iACCESS:   27128523  iHIT:   25479378  iMISS:    1649145  dACCESS:          0  dHIT:          0  dMISS:          0  itACCESS:          0  itHIT:          0  itMISS:          0  dtACCESS:          0  dtHIT:          0  dtMISS:          0
cpu0_ITLB RFO          ACCESS:          0  HIT:          0  MISS:          0  iACCESS:          0  iHIT:          0  iMISS:          0  dACCESS:          0  dHIT:          0  dMISS:          0  itACCESS:          0  itHIT:          0  itMISS:          0  dtACCESS:          0  dtHIT:          0  dtMISS:          0
cpu0_ITLB PREFETCH     ACCESS:          0  HIT:          0  MISS:          0  iACCESS:          0  iHIT:          0  iMISS:          0  dACCESS:          0  dHIT:          0  dMISS:          0  itACCESS:          0  itHIT:          0  itMISS:          0  dtACCESS:          0  dtHIT:          0  dtMISS:          0
cpu0_ITLB WRITE        ACCESS:          0  HIT:          0  MISS:          0  iACCESS:          0  iHIT:          0  iMISS:          0  dACCESS:          0  dHIT:          0  dMISS:          0  itACCESS:          0  itHIT:          0  itMISS:          0  dtACCESS:          0  dtHIT:          0  dtMISS:          0
cpu0_ITLB TRANSLATION  ACCESS:          0  HIT:          0  MISS:          0  iACCESS:          0  iHIT:          0  iMISS:          0  dACCESS:          0  dHIT:          0  dMISS:          0  itACCESS:          0  itHIT:          0  itMISS:          0  dtACCESS:          0  dtHIT:          0  dtMISS:          0
cpu0_ITLB PREFETCH  REQUESTED:          0  ISSUED:          0  CROSSED:          0  USEFUL:     279824  USELESS:      52370
cpu0_ITLB AVERAGE iMISS LATENCY: 3.91417 cycles
cpu0_ITLB AVERAGE dMISS LATENCY: 0 cycles
cpu0_ITLB AVERAGE itMISS LATENCY: 0 cycles
cpu0_ITLB AVERAGE dtMISS LATENCY: 0 cycles
cpu0_ITLB PAGE CROSSINGS (TLB HIT):         0 
cpu0_ITLB PAGE CROSSINGS (TLB MISS):         0 
cpu0_ITLB AVERAGE MISS LATENCY: 3.91417 cycles
cpu0_DTLB TOTAL       ACCESS:   29334191  HIT:   27500441  MISS:    1833750  iACCESS:          0  iHIT:          0  iMISS:          0  dACCESS:   29334191  dHIT:   27500441  dMISS:    1833750  itACCESS:          0  itHIT:          0  itMISS:          0  dtACCESS:          0  dtHIT:          0  dtMISS:          0
cpu0_DTLB LOAD         ACCESS:   29334191  HIT:   27500441  MISS:    1833750  iACCESS:          0  iHIT:          0  iMISS:          0  dACCESS:   29334191  dHIT:   27500441  dMISS:    1833750  itACCESS:          0  itHIT:          0  itMISS:          0  dtACCESS:          0  dtHIT:          0  dtMISS:          0
cpu0_DTLB RFO          ACCESS:          0  HIT:          0  MISS:          0  iACCESS:          0  iHIT:          0  iMISS:          0  dACCESS:          0  dHIT:          0  dMISS:          0  itACCESS:          0  itHIT:          0  itMISS:          0  dtACCESS:          0  dtHIT:          0  dtMISS:          0
cpu0_DTLB PREFETCH     ACCESS:          0  HIT:          0  MISS:          0  iACCESS:          0  iHIT:          0  iMISS:          0  dACCESS:          0  dHIT:          0  dMISS:          0  itACCESS:          0  itHIT:          0  itMISS:          0  dtACCESS:          0  dtHIT:          0  dtMISS:          0
cpu0_DTLB WRITE        ACCESS:          0  HIT:          0  MISS:          0  iACCESS:          0  iHIT:          0  iMISS:          0  dACCESS:          0  dHIT:          0  dMISS:          0  itACCESS:          0  itHIT:          0  itMISS:          0  dtACCESS:          0  dtHIT:          0  dtMISS:          0
cpu0_DTLB TRANSLATION  ACCESS:          0  HIT:          0  MISS:          0  iACCESS:          0  iHIT:          0  iMISS:          0  dACCESS:          0  dHIT:          0  dMISS:          0  itACCESS:          0  itHIT:          0  itMISS:          0  dtACCESS:          0  dtHIT:          0  dtMISS:          0
cpu0_DTLB PREFETCH  REQUESTED:          0  ISSUED:          0  CROSSED:          0  USEFUL:          0  USELESS:          0
cpu0_DTLB AVERAGE iMISS LATENCY: 0 cycles
cpu0_DTLB AVERAGE dMISS LATENCY: 24.9348 cycles
cpu0_DTLB AVERAGE itMISS LATENCY: 0 cycles
cpu0_DTLB AVERAGE dtMISS LATENCY: 0 cycles
cpu0_DTLB PAGE CROSSINGS (TLB HIT):         0 
cpu0_DTLB PAGE CROSSINGS (TLB MISS):         0 
cpu0_DTLB AVERAGE MISS LATENCY: 24.9348 cycles
cpu0_STLB TOTAL       ACCESS:    1409042  HIT:    1215735  MISS:     193307  iACCESS:     332199  iHIT:     309279  iMISS:      22920  dACCESS:    1076843  dHIT:     906456  dMISS:     170387  itACCESS:          0  itHIT:          0  itMISS:          0  dtACCESS:          0  dtHIT:          0  dtMISS:          0
cpu0_STLB LOAD         ACCESS:    1409042  HIT:    1215735  MISS:     193307  iACCESS:     332199  iHIT:     309279  iMISS:      22920  dACCESS:    1076843  dHIT:     906456  dMISS:     170387  itACCESS:          0  itHIT:          0  itMISS:          0  dtACCESS:          0  dtHIT:          0  dtMISS:          0
cpu0_STLB RFO          ACCESS:          0  HIT:          0  MISS:          0  iACCESS:          0  iHIT:          0  iMISS:          0  dACCESS:          0  dHIT:          0  dMISS:          0  itACCESS:          0  itHIT:          0  itMISS:          0  dtACCESS:          0  dtHIT:          0  dtMISS:          0
cpu0_STLB PREFETCH     ACCESS:          0  HIT:          0  MISS:          0  iACCESS:          0  iHIT:          0  iMISS:          0  dACCESS:          0  dHIT:          0  dMISS:          0  itACCESS:          0  itHIT:          0  itMISS:          0  dtACCESS:          0  dtHIT:          0  dtMISS:          0
cpu0_STLB WRITE        ACCESS:          0  HIT:          0  MISS:          0  iACCESS:          0  iHIT:          0  iMISS:          0  dACCESS:          0  dHIT:          0  dMISS:          0  itACCESS:          0  itHIT:          0  itMISS:          0  dtACCESS:          0  dtHIT:          0  dtMISS:          0
cpu0_STLB TRANSLATION  ACCESS:          0  HIT:          0  MISS:          0  iACCESS:          0  iHIT:          0  iMISS:          0  dACCESS:          0  dHIT:          0  dMISS:          0  itACCESS:          0  itHIT:          0  itMISS:          0  dtACCESS:          0  dtHIT:          0  dtMISS:          0
cpu0_STLB PREFETCH  REQUESTED:          0  ISSUED:          0  CROSSED:          0  USEFUL:          0  USELESS:          0
cpu0_STLB AVERAGE iMISS LATENCY: 19.966 cycles
cpu0_STLB AVERAGE dMISS LATENCY: 191.752 cycles
cpu0_STLB AVERAGE itMISS LATENCY: 0 cycles
cpu0_STLB AVERAGE dtMISS LATENCY: 0 cycles
cpu0_STLB PAGE CROSSINGS (TLB HIT):         0 
cpu0_STLB PAGE CROSSINGS (TLB MISS):         0 
cpu0_STLB AVERAGE MISS LATENCY: 211.718 cycles
cpu0_L1D TOTAL       ACCESS:   45801218  HIT:   39804426  MISS:    5996792  iACCESS:          0  iHIT:          0  iMISS:          0  dACCESS:   45482201  dHIT:   39786979  dMISS:    5695222  itACCESS:      29856  itHIT:       2341  itMISS:      27515  dtACCESS:     289161  dtHIT:      15106  dtMISS:     274055
cpu0_L1D LOAD         ACCESS:   21923441  HIT:   19280924  MISS:    2642517  iACCESS:          0  iHIT:          0  iMISS:          0  dACCESS:   21923441  dHIT:   19280924  dMISS:    2642517  itACCESS:          0  itHIT:          0  itMISS:          0  dtACCESS:          0  dtHIT:          0  dtMISS:          0
cpu0_L1D RFO          ACCESS:          0  HIT:          0  MISS:          0  iACCESS:          0  iHIT:          0  iMISS:          0  dACCESS:          0  dHIT:          0  dMISS:          0  itACCESS:          0  itHIT:          0  itMISS:          0  dtACCESS:          0  dtHIT:          0  dtMISS:          0
cpu0_L1D PREFETCH     ACCESS:   13882016  HIT:   11525578  MISS:    2356438  iACCESS:          0  iHIT:          0  iMISS:          0  dACCESS:   13882016  dHIT:   11525578  dMISS:    2356438  itACCESS:          0  itHIT:          0  itMISS:          0  dtACCESS:          0  dtHIT:          0  dtMISS:          0
cpu0_L1D WRITE        ACCESS:    9676744  HIT:    8980477  MISS:     696267  iACCESS:          0  iHIT:          0  iMISS:          0  dACCESS:    9676744  dHIT:    8980477  dMISS:     696267  itACCESS:          0  itHIT:          0  itMISS:          0  dtACCESS:          0  dtHIT:          0  dtMISS:          0
cpu0_L1D TRANSLATION  ACCESS:     319017  HIT:      17447  MISS:     301570  iACCESS:          0  iHIT:          0  iMISS:          0  dACCESS:          0  dHIT:          0  dMISS:          0  itACCESS:      29856  itHIT:       2341  itMISS:      27515  dtACCESS:     289161  dtHIT:      15106  dtMISS:     274055
cpu0_L1D PREFETCH  REQUESTED:   21923441  ISSUED:   18535906  CROSSED:          0  USEFUL:     316102  USELESS:     699528
cpu0_L1D AVERAGE iMISS LATENCY: 0 cycles
cpu0_L1D AVERAGE dMISS LATENCY: 36.793 cycles
cpu0_L1D AVERAGE itMISS LATENCY: 0.601317 cycles
cpu0_L1D AVERAGE dtMISS LATENCY: 5.77276 cycles
cpu0_L1D PAGE CROSSINGS (TLB HIT):         0 
cpu0_L1D PAGE CROSSINGS (TLB MISS):         0 
cpu0_L1D AVERAGE MISS LATENCY: 43.1671 cycles
cpu0_L2C TOTAL       ACCESS:    6736007  HIT:    3396942  MISS:    3339065  iACCESS:    2841724  iHIT:    1703292  iMISS:    1138432  dACCESS:    3659661  dHIT:    1659093  dMISS:    2000568  itACCESS:      23651  itHIT:       3699  itMISS:      19952  dtACCESS:     210971  dtHIT:      30858  dtMISS:     180113
cpu0_L2C LOAD         ACCESS:    1800462  HIT:     970017  MISS:     830445  iACCESS:     662550  iHIT:     425488  iMISS:     237062  dACCESS:    1137912  dHIT:     544529  dMISS:     593383  itACCESS:          0  itHIT:          0  itMISS:          0  dtACCESS:          0  dtHIT:          0  dtMISS:          0
cpu0_L2C RFO          ACCESS:     171217  HIT:      62957  MISS:     108260  iACCESS:          0  iHIT:          0  iMISS:          0  dACCESS:     171217  dHIT:      62957  dMISS:     108260  itACCESS:          0  itHIT:          0  itMISS:          0  dtACCESS:          0  dtHIT:          0  dtMISS:          0
cpu0_L2C PREFETCH     ACCESS:    4246933  HIT:    2047621  MISS:    2199312  iACCESS:    2179174  iHIT:    1277804  iMISS:     901370  dACCESS:    2067759  dHIT:     769817  dMISS:    1297942  itACCESS:          0  itHIT:          0  itMISS:          0  dtACCESS:          0  dtHIT:          0  dtMISS:          0
cpu0_L2C WRITE        ACCESS:     282773  HIT:     281790  MISS:        983  iACCESS:          0  iHIT:          0  iMISS:          0  dACCESS:     282773  dHIT:     281790  dMISS:        983  itACCESS:          0  itHIT:          0  itMISS:          0  dtACCESS:          0  dtHIT:          0  dtMISS:          0
cpu0_L2C TRANSLATION  ACCESS:     234622  HIT:      34557  MISS:     200065  iACCESS:          0  iHIT:          0  iMISS:          0  dACCESS:          0  dHIT:          0  dMISS:          0  itACCESS:      23651  itHIT:       3699  itMISS:      19952  dtACCESS:     210971  dtHIT:      30858  dtMISS:     180113
cpu0_L2C PREFETCH  REQUESTED:    1260918  ISSUED:    1259351  CROSSED:          0  USEFUL:     295170  USELESS:     261989
cpu0_L2C AVERAGE iMISS LATENCY: 36.0821 cycles
cpu0_L2C AVERAGE dMISS LATENCY: 79.8357 cycles
cpu0_L2C AVERAGE itMISS LATENCY: 1.00995 cycles
cpu0_L2C AVERAGE dtMISS LATENCY: 9.74105 cycles
cpu0_L2C PAGE CROSSINGS (TLB HIT):         0 
cpu0_L2C PAGE CROSSINGS (TLB MISS):         0 
cpu0_L2C AVERAGE MISS LATENCY: 126.669 cycles
LLC TOTAL       ACCESS:    3326836  HIT:    1211394  MISS:    2115442  iACCESS:    1068652  iHIT:     413854  iMISS:     654798  dACCESS:    2058119  dHIT:     760785  dMISS:    1297334  itACCESS:      19952  itHIT:       3235  itMISS:      16717  dtACCESS:     180113  dtHIT:      33520  dtMISS:     146593
LLC LOAD         ACCESS:     824774  HIT:     302095  MISS:     522679  iACCESS:     235890  iHIT:      98410  iMISS:     137480  dACCESS:     588884  dHIT:     203685  dMISS:     385199  itACCESS:          0  itHIT:          0  itMISS:          0  dtACCESS:          0  dtHIT:          0  dtMISS:          0
LLC RFO          ACCESS:     108254  HIT:      30606  MISS:      77648  iACCESS:          0  iHIT:          0  iMISS:          0  dACCESS:     108254  dHIT:      30606  dMISS:      77648  itACCESS:          0  itHIT:          0  itMISS:          0  dtACCESS:          0  dtHIT:          0  dtMISS:          0
LLC PREFETCH     ACCESS:    2036062  HIT:     694567  MISS:    1341495  iACCESS:     832762  iHIT:     315444  iMISS:     517318  dACCESS:    1203300  dHIT:     379123  dMISS:     824177  itACCESS:          0  itHIT:          0  itMISS:          0  dtACCESS:          0  dtHIT:          0  dtMISS:          0
LLC WRITE        ACCESS:     157681  HIT:     147371  MISS:      10310  iACCESS:          0  iHIT:          0  iMISS:          0  dACCESS:     157681  dHIT:     147371  dMISS:      10310  itACCESS:          0  itHIT:          0  itMISS:          0  dtACCESS:          0  dtHIT:          0  dtMISS:          0
LLC TRANSLATION  ACCESS:     200065  HIT:      36755  MISS:     163310  iACCESS:          0  iHIT:          0  iMISS:          0  dACCESS:          0  dHIT:          0  dMISS:          0  itACCESS:      19952  itHIT:       3235  itMISS:      16717  dtACCESS:     180113  dtHIT:      33520  dtMISS:     146593
LLC PREFETCH  REQUESTED:          0  ISSUED:          0  CROSSED:          0  USEFUL:          0  USELESS:          0
LLC AVERAGE iMISS LATENCY: 47.0342 cycles
LLC AVERAGE dMISS LATENCY: 109.487 cycles
LLC AVERAGE itMISS LATENCY: 1.40783 cycles
LLC AVERAGE dtMISS LATENCY: 13.6977 cycles
LLC PAGE CROSSINGS (TLB HIT):         0 
LLC PAGE CROSSINGS (TLB MISS):         0 
LLC AVERAGE MISS LATENCY: 171.626 cycles

PageTableWalker TOTAL       ACCESS:      96659  
PageTableWalker AVERAGE LATENCY: 5.4584 cycles
PageTableWalker TOTAL LATENCY: 527603 cycles

DRAM Statistics
Channel 0
 RQ ROW_BUFFER_HIT:     558208
  ROW_BUFFER_MISS:    1531832
 AVG DBUS CONGESTED CYCLE:    3.66149
 WQ ROW_BUFFER_HIT:      43879
  ROW_BUFFER_MISS:      43592  FULL:          0

