last_page:0x200000000000000
VMEM_RES_CAP:0x100000
PAGE_SIZE:4096
LOG2_PAGE_SIZE:12
LOG2_PAGE_TABLE_SIZE:9
page_table_levels:5
WARNING: physical memory size is smaller than virtual memory size
FDiP enabled with aggresivity 16

*** ChampSim Multicore Out-of-Order Simulator ***

Warmup Instructions: 50000000
Simulation Instructions: 100000000
Number of CPUs: 1
Small page size: 4096
Large page size: 2097152

CPU 0 Bimodal branch predictor
Basic BTB sets: 1024 ways: 8 indirect buffer size: 4096 RAS size: 64
Instruction page size distrubution: 0
Loading instruction page size distribution from /home/bsc/bsc018186/scratch/itp_asplos25_AE/dump/srv41_ap.pdst
Data page size distrubution: 0
Loading data page size distribution from /home/bsc/bsc018186/scratch/itp_asplos25_AE/dump/srv41_ap.pdst
cpu0_L2C IP-based stride prefetcher
cpu0_L2C is using PTP replacement policy:
	TLB_STRESS_THRESHOLD:0
	PTE_EVICTION_RATIO:0
cpu0_L1D next line prefetcher
cpu0_STLB using iTP with max lru@8
cpu0_STLB using iTP with instr@0 and data@2
Init sat counter with 3 bits (max:50).
cpu0_L1I next line prefetcher
Off-chip DRAM Size: 4 GiB Channels: 1 Width: 64-bit Data Rate: 3200 MT/s
Heartbeat CPU 0 instructions: 10000000 cycles: 2500166 heartbeat IPC: 3.99974 cumulative IPC: 3.99974 (Simulation time: 0 hr 0 min 40 sec) 
Heartbeat CPU 0 instructions: 20000001 cycles: 5000176 heartbeat IPC: 3.99999 cumulative IPC: 3.99986 (Simulation time: 0 hr 1 min 20 sec) 
Heartbeat CPU 0 instructions: 30000002 cycles: 7500221 heartbeat IPC: 3.99993 cumulative IPC: 3.99989 (Simulation time: 0 hr 2 min 1 sec) 
Heartbeat CPU 0 instructions: 40000000 cycles: 10000261 heartbeat IPC: 3.99994 cumulative IPC: 3.9999 (Simulation time: 0 hr 2 min 41 sec) 
Heartbeat CPU 0 instructions: 50000001 cycles: 12500273 heartbeat IPC: 3.99999 cumulative IPC: 3.99992 (Simulation time: 0 hr 3 min 22 sec) 
Warmup finished CPU 0 instructions: 50000001 cycles: 12500274 cumulative IPC: 3.99992 (Simulation time: 0 hr 3 min 22 sec) 

Warmup complete CPU 0 instructions: 50000001 cycles: 12500274 (Simulation time: 0 hr 3 min 22 sec) 

Heartbeat CPU 0 instructions: 60000004 cycles: 31454390 heartbeat IPC: 0.527591 cumulative IPC: 0.527591 (Simulation time: 0 hr 4 min 31 sec) 
Heartbeat CPU 0 instructions: 70000003 cycles: 49857966 heartbeat IPC: 0.543373 cumulative IPC: 0.535366 (Simulation time: 0 hr 5 min 39 sec) 
Heartbeat CPU 0 instructions: 80000001 cycles: 69053177 heartbeat IPC: 0.520964 cumulative IPC: 0.530477 (Simulation time: 0 hr 6 min 50 sec) 
Heartbeat CPU 0 instructions: 90000003 cycles: 89396146 heartbeat IPC: 0.491571 cumulative IPC: 0.520184 (Simulation time: 0 hr 8 min 3 sec) 
Heartbeat CPU 0 instructions: 100000002 cycles: 108273269 heartbeat IPC: 0.529742 cumulative IPC: 0.522068 (Simulation time: 0 hr 9 min 13 sec) 
*** Reached end of trace: /gpfs/projects/bsc18/MN4/bsc18/romol/ChampSim/traces/qualcomm_srv/srv41_ap.champsimtrace.xz
Heartbeat CPU 0 instructions: 110000003 cycles: 127877395 heartbeat IPC: 0.510097 cumulative IPC: 0.520034 (Simulation time: 0 hr 10 min 28 sec) 
Heartbeat CPU 0 instructions: 120000001 cycles: 147866711 heartbeat IPC: 0.500268 cumulative IPC: 0.517115 (Simulation time: 0 hr 11 min 46 sec) 
Heartbeat CPU 0 instructions: 130000002 cycles: 167192000 heartbeat IPC: 0.517457 cumulative IPC: 0.517158 (Simulation time: 0 hr 13 min 3 sec) 
Heartbeat CPU 0 instructions: 140000001 cycles: 186936237 heartbeat IPC: 0.506477 cumulative IPC: 0.515949 (Simulation time: 0 hr 14 min 17 sec) 
Heartbeat CPU 0 instructions: 150000002 cycles: 206615658 heartbeat IPC: 0.508146 cumulative IPC: 0.515158 (Simulation time: 0 hr 15 min 35 sec) 
Simulation finished CPU 0 instructions: 100000001 cycles: 194115385 cumulative IPC: 0.515158 (Simulation time: 0 hr 15 min 35 sec) 

Simulation complete CPU 0 instructions: 100000001 cycles: 194115385 (Simulation time: 0 hr 15 min 35 sec) 


ChampSim completed all CPUs

Saving instructions large page distribution to /home/bsc/bsc018186/scratch/itp_asplos25_AE/dump/srv41_ap.pdst...
Saving data large page distribution to /home/bsc/bsc018186/scratch/itp_asplos25_AE/dump/srv41_ap.pdst...
=== Simulation ===
CPU 0 runs /gpfs/projects/bsc18/MN4/bsc18/romol/ChampSim/traces/qualcomm_srv/srv41_ap.champsimtrace.xz

Region of Interest Statistics

CPU 0 cumulative IPC: 0.515158 instructions: 100000001 cycles: 194115385
CPU 0 Branch Prediction Accuracy: 80.3925% MPKI: 35.4392 Average ROB Occupancy at Mispredict: 10.6327
Branch type MPKI
BRANCH_DIRECT_JUMP: 1.31902
BRANCH_INDIRECT: 17.7313
BRANCH_CONDITIONAL: 11.5202
BRANCH_DIRECT_CALL: 2.49591
BRANCH_INDIRECT_CALL: 0.6704
BRANCH_RETURN: 1.70236

Instructions large pages: 0
Instructions small pages: 5905
Large page distribution for instructions: 0%

Data large pages: 0
Data small pages: 4859
Large page distribution for data: 0%

cpu0_L1I TOTAL       ACCESS:   36056305  HIT:   27873406  MISS:    8182899  iACCESS:   36056305  iHIT:   27873406  iMISS:    8182899  dACCESS:          0  dHIT:          0  dMISS:          0  itACCESS:          0  itHIT:          0  itMISS:          0  dtACCESS:          0  dtHIT:          0  dtMISS:          0
cpu0_L1I LOAD         ACCESS:   10514113  HIT:    8262145  MISS:    2251968  iACCESS:   10514113  iHIT:    8262145  iMISS:    2251968  dACCESS:          0  dHIT:          0  dMISS:          0  itACCESS:          0  itHIT:          0  itMISS:          0  dtACCESS:          0  dtHIT:          0  dtMISS:          0
cpu0_L1I RFO          ACCESS:          0  HIT:          0  MISS:          0  iACCESS:          0  iHIT:          0  iMISS:          0  dACCESS:          0  dHIT:          0  dMISS:          0  itACCESS:          0  itHIT:          0  itMISS:          0  dtACCESS:          0  dtHIT:          0  dtMISS:          0
cpu0_L1I PREFETCH     ACCESS:   25542192  HIT:   19611261  MISS:    5930931  iACCESS:   25542192  iHIT:   19611261  iMISS:    5930931  dACCESS:          0  dHIT:          0  dMISS:          0  itACCESS:          0  itHIT:          0  itMISS:          0  dtACCESS:          0  dtHIT:          0  dtMISS:          0
cpu0_L1I WRITE        ACCESS:          0  HIT:          0  MISS:          0  iACCESS:          0  iHIT:          0  iMISS:          0  dACCESS:          0  dHIT:          0  dMISS:          0  itACCESS:          0  itHIT:          0  itMISS:          0  dtACCESS:          0  dtHIT:          0  dtMISS:          0
cpu0_L1I TRANSLATION  ACCESS:          0  HIT:          0  MISS:          0  iACCESS:          0  iHIT:          0  iMISS:          0  dACCESS:          0  dHIT:          0  dMISS:          0  itACCESS:          0  itHIT:          0  itMISS:          0  dtACCESS:          0  dtHIT:          0  dtMISS:          0
cpu0_L1I PREFETCH  REQUESTED:   27979382  ISSUED:   27979008  CROSSED:          0  USEFUL:    1992011  USELESS:     652454
cpu0_L1I AVERAGE iMISS LATENCY: 19.5264 cycles
cpu0_L1I AVERAGE dMISS LATENCY: 0 cycles
cpu0_L1I AVERAGE itMISS LATENCY: 0 cycles
cpu0_L1I AVERAGE dtMISS LATENCY: 0 cycles
cpu0_L1I PAGE CROSSINGS (TLB HIT):         0 
cpu0_L1I PAGE CROSSINGS (TLB MISS):         0 
cpu0_L1I AVERAGE MISS LATENCY: 19.5264 cycles
cpu0_ITLB TOTAL       ACCESS:   30178269  HIT:   28240653  MISS:    1937616  iACCESS:   30178269  iHIT:   28240653  iMISS:    1937616  dACCESS:          0  dHIT:          0  dMISS:          0  itACCESS:          0  itHIT:          0  itMISS:          0  dtACCESS:          0  dtHIT:          0  dtMISS:          0
cpu0_ITLB LOAD         ACCESS:   30178269  HIT:   28240653  MISS:    1937616  iACCESS:   30178269  iHIT:   28240653  iMISS:    1937616  dACCESS:          0  dHIT:          0  dMISS:          0  itACCESS:          0  itHIT:          0  itMISS:          0  dtACCESS:          0  dtHIT:          0  dtMISS:          0
cpu0_ITLB RFO          ACCESS:          0  HIT:          0  MISS:          0  iACCESS:          0  iHIT:          0  iMISS:          0  dACCESS:          0  dHIT:          0  dMISS:          0  itACCESS:          0  itHIT:          0  itMISS:          0  dtACCESS:          0  dtHIT:          0  dtMISS:          0
cpu0_ITLB PREFETCH     ACCESS:          0  HIT:          0  MISS:          0  iACCESS:          0  iHIT:          0  iMISS:          0  dACCESS:          0  dHIT:          0  dMISS:          0  itACCESS:          0  itHIT:          0  itMISS:          0  dtACCESS:          0  dtHIT:          0  dtMISS:          0
cpu0_ITLB WRITE        ACCESS:          0  HIT:          0  MISS:          0  iACCESS:          0  iHIT:          0  iMISS:          0  dACCESS:          0  dHIT:          0  dMISS:          0  itACCESS:          0  itHIT:          0  itMISS:          0  dtACCESS:          0  dtHIT:          0  dtMISS:          0
cpu0_ITLB TRANSLATION  ACCESS:          0  HIT:          0  MISS:          0  iACCESS:          0  iHIT:          0  iMISS:          0  dACCESS:          0  dHIT:          0  dMISS:          0  itACCESS:          0  itHIT:          0  itMISS:          0  dtACCESS:          0  dtHIT:          0  dtMISS:          0
cpu0_ITLB PREFETCH  REQUESTED:          0  ISSUED:          0  CROSSED:          0  USEFUL:     327672  USELESS:      65504
cpu0_ITLB AVERAGE iMISS LATENCY: 3.7018 cycles
cpu0_ITLB AVERAGE dMISS LATENCY: 0 cycles
cpu0_ITLB AVERAGE itMISS LATENCY: 0 cycles
cpu0_ITLB AVERAGE dtMISS LATENCY: 0 cycles
cpu0_ITLB PAGE CROSSINGS (TLB HIT):         0 
cpu0_ITLB PAGE CROSSINGS (TLB MISS):         0 
cpu0_ITLB AVERAGE MISS LATENCY: 3.7018 cycles
cpu0_DTLB TOTAL       ACCESS:   27919983  HIT:   25943113  MISS:    1976870  iACCESS:          0  iHIT:          0  iMISS:          0  dACCESS:   27919983  dHIT:   25943113  dMISS:    1976870  itACCESS:          0  itHIT:          0  itMISS:          0  dtACCESS:          0  dtHIT:          0  dtMISS:          0
cpu0_DTLB LOAD         ACCESS:   27919983  HIT:   25943113  MISS:    1976870  iACCESS:          0  iHIT:          0  iMISS:          0  dACCESS:   27919983  dHIT:   25943113  dMISS:    1976870  itACCESS:          0  itHIT:          0  itMISS:          0  dtACCESS:          0  dtHIT:          0  dtMISS:          0
cpu0_DTLB RFO          ACCESS:          0  HIT:          0  MISS:          0  iACCESS:          0  iHIT:          0  iMISS:          0  dACCESS:          0  dHIT:          0  dMISS:          0  itACCESS:          0  itHIT:          0  itMISS:          0  dtACCESS:          0  dtHIT:          0  dtMISS:          0
cpu0_DTLB PREFETCH     ACCESS:          0  HIT:          0  MISS:          0  iACCESS:          0  iHIT:          0  iMISS:          0  dACCESS:          0  dHIT:          0  dMISS:          0  itACCESS:          0  itHIT:          0  itMISS:          0  dtACCESS:          0  dtHIT:          0  dtMISS:          0
cpu0_DTLB WRITE        ACCESS:          0  HIT:          0  MISS:          0  iACCESS:          0  iHIT:          0  iMISS:          0  dACCESS:          0  dHIT:          0  dMISS:          0  itACCESS:          0  itHIT:          0  itMISS:          0  dtACCESS:          0  dtHIT:          0  dtMISS:          0
cpu0_DTLB TRANSLATION  ACCESS:          0  HIT:          0  MISS:          0  iACCESS:          0  iHIT:          0  iMISS:          0  dACCESS:          0  dHIT:          0  dMISS:          0  itACCESS:          0  itHIT:          0  itMISS:          0  dtACCESS:          0  dtHIT:          0  dtMISS:          0
cpu0_DTLB PREFETCH  REQUESTED:          0  ISSUED:          0  CROSSED:          0  USEFUL:          0  USELESS:          0
cpu0_DTLB AVERAGE iMISS LATENCY: 0 cycles
cpu0_DTLB AVERAGE dMISS LATENCY: 16.8777 cycles
cpu0_DTLB AVERAGE itMISS LATENCY: 0 cycles
cpu0_DTLB AVERAGE dtMISS LATENCY: 0 cycles
cpu0_DTLB PAGE CROSSINGS (TLB HIT):         0 
cpu0_DTLB PAGE CROSSINGS (TLB MISS):         0 
cpu0_DTLB AVERAGE MISS LATENCY: 16.8777 cycles
cpu0_STLB TOTAL       ACCESS:    1626747  HIT:    1415347  MISS:     211400  iACCESS:     393180  iHIT:     364699  iMISS:      28481  dACCESS:    1233567  dHIT:    1050648  dMISS:     182919  itACCESS:          0  itHIT:          0  itMISS:          0  dtACCESS:          0  dtHIT:          0  dtMISS:          0
cpu0_STLB LOAD         ACCESS:    1626747  HIT:    1415347  MISS:     211400  iACCESS:     393180  iHIT:     364699  iMISS:      28481  dACCESS:    1233567  dHIT:    1050648  dMISS:     182919  itACCESS:          0  itHIT:          0  itMISS:          0  dtACCESS:          0  dtHIT:          0  dtMISS:          0
cpu0_STLB RFO          ACCESS:          0  HIT:          0  MISS:          0  iACCESS:          0  iHIT:          0  iMISS:          0  dACCESS:          0  dHIT:          0  dMISS:          0  itACCESS:          0  itHIT:          0  itMISS:          0  dtACCESS:          0  dtHIT:          0  dtMISS:          0
cpu0_STLB PREFETCH     ACCESS:          0  HIT:          0  MISS:          0  iACCESS:          0  iHIT:          0  iMISS:          0  dACCESS:          0  dHIT:          0  dMISS:          0  itACCESS:          0  itHIT:          0  itMISS:          0  dtACCESS:          0  dtHIT:          0  dtMISS:          0
cpu0_STLB WRITE        ACCESS:          0  HIT:          0  MISS:          0  iACCESS:          0  iHIT:          0  iMISS:          0  dACCESS:          0  dHIT:          0  dMISS:          0  itACCESS:          0  itHIT:          0  itMISS:          0  dtACCESS:          0  dtHIT:          0  dtMISS:          0
cpu0_STLB TRANSLATION  ACCESS:          0  HIT:          0  MISS:          0  iACCESS:          0  iHIT:          0  iMISS:          0  dACCESS:          0  dHIT:          0  dMISS:          0  itACCESS:          0  itHIT:          0  itMISS:          0  dtACCESS:          0  dtHIT:          0  dtMISS:          0
cpu0_STLB PREFETCH  REQUESTED:          0  ISSUED:          0  CROSSED:          0  USEFUL:          0  USELESS:          0
cpu0_STLB AVERAGE iMISS LATENCY: 19.4012 cycles
cpu0_STLB AVERAGE dMISS LATENCY: 111.071 cycles
cpu0_STLB AVERAGE itMISS LATENCY: 0 cycles
cpu0_STLB AVERAGE dtMISS LATENCY: 0 cycles
cpu0_STLB PAGE CROSSINGS (TLB HIT):         0 
cpu0_STLB PAGE CROSSINGS (TLB MISS):         0 
cpu0_STLB AVERAGE MISS LATENCY: 130.472 cycles
cpu0_L1D TOTAL       ACCESS:   43030457  HIT:   38412441  MISS:    4618016  iACCESS:          0  iHIT:          0  iMISS:          0  dACCESS:   42742948  dHIT:   38395107  dMISS:    4347841  itACCESS:      32451  itHIT:       2751  itMISS:      29700  dtACCESS:     255058  dtHIT:      14583  dtMISS:     240475
cpu0_L1D LOAD         ACCESS:   19563609  HIT:   17569559  MISS:    1994050  iACCESS:          0  iHIT:          0  iMISS:          0  dACCESS:   19563609  dHIT:   17569559  dMISS:    1994050  itACCESS:          0  itHIT:          0  itMISS:          0  dtACCESS:          0  dtHIT:          0  dtMISS:          0
cpu0_L1D RFO          ACCESS:          0  HIT:          0  MISS:          0  iACCESS:          0  iHIT:          0  iMISS:          0  dACCESS:          0  dHIT:          0  dMISS:          0  itACCESS:          0  itHIT:          0  itMISS:          0  dtACCESS:          0  dtHIT:          0  dtMISS:          0
cpu0_L1D PREFETCH     ACCESS:   13035165  HIT:   11152392  MISS:    1882773  iACCESS:          0  iHIT:          0  iMISS:          0  dACCESS:   13035165  dHIT:   11152392  dMISS:    1882773  itACCESS:          0  itHIT:          0  itMISS:          0  dtACCESS:          0  dtHIT:          0  dtMISS:          0
cpu0_L1D WRITE        ACCESS:   10144174  HIT:    9673156  MISS:     471018  iACCESS:          0  iHIT:          0  iMISS:          0  dACCESS:   10144174  dHIT:    9673156  dMISS:     471018  itACCESS:          0  itHIT:          0  itMISS:          0  dtACCESS:          0  dtHIT:          0  dtMISS:          0
cpu0_L1D TRANSLATION  ACCESS:     287509  HIT:      17334  MISS:     270175  iACCESS:          0  iHIT:          0  iMISS:          0  dACCESS:          0  dHIT:          0  dMISS:          0  itACCESS:      32451  itHIT:       2751  itMISS:      29700  dtACCESS:     255058  dtHIT:      14583  dtMISS:     240475
cpu0_L1D PREFETCH  REQUESTED:   19563609  ISSUED:   17308558  CROSSED:          0  USEFUL:     310871  USELESS:     703546
cpu0_L1D AVERAGE iMISS LATENCY: 0 cycles
cpu0_L1D AVERAGE dMISS LATENCY: 37.9305 cycles
cpu0_L1D AVERAGE itMISS LATENCY: 0.826855 cycles
cpu0_L1D AVERAGE dtMISS LATENCY: 4.57015 cycles
cpu0_L1D PAGE CROSSINGS (TLB HIT):         0 
cpu0_L1D PAGE CROSSINGS (TLB MISS):         0 
cpu0_L1D AVERAGE MISS LATENCY: 43.3275 cycles
cpu0_L2C TOTAL       ACCESS:    7290797  HIT:    2090950  MISS:    5199847  iACCESS:    3379346  iHIT:    1184722  iMISS:    2194624  dACCESS:    3648972  dHIT:     789214  dMISS:    2859758  itACCESS:      29700  itHIT:       6768  itMISS:      22932  dtACCESS:     232779  dtHIT:     110246  dtMISS:     122533
cpu0_L2C LOAD         ACCESS:    1724267  HIT:     402290  MISS:    1321977  iACCESS:     771780  iHIT:     238841  iMISS:     532939  dACCESS:     952487  dHIT:     163449  dMISS:     789038  itACCESS:          0  itHIT:          0  itMISS:          0  dtACCESS:          0  dtHIT:          0  dtMISS:          0
cpu0_L2C RFO          ACCESS:     163162  HIT:      26386  MISS:     136776  iACCESS:          0  iHIT:          0  iMISS:          0  dACCESS:     163162  dHIT:      26386  dMISS:     136776  itACCESS:          0  itHIT:          0  itMISS:          0  dtACCESS:          0  dtHIT:          0  dtMISS:          0
cpu0_L2C PREFETCH     ACCESS:    4867261  HIT:    1424021  MISS:    3443240  iACCESS:    2607566  iHIT:     945881  iMISS:    1661685  dACCESS:    2259695  dHIT:     478140  dMISS:    1781555  itACCESS:          0  itHIT:          0  itMISS:          0  dtACCESS:          0  dtHIT:          0  dtMISS:          0
cpu0_L2C WRITE        ACCESS:     273628  HIT:     121239  MISS:     152389  iACCESS:          0  iHIT:          0  iMISS:          0  dACCESS:     273628  dHIT:     121239  dMISS:     152389  itACCESS:          0  itHIT:          0  itMISS:          0  dtACCESS:          0  dtHIT:          0  dtMISS:          0
cpu0_L2C TRANSLATION  ACCESS:     262479  HIT:     117014  MISS:     145465  iACCESS:          0  iHIT:          0  iMISS:          0  dACCESS:          0  dHIT:          0  dMISS:          0  itACCESS:      29700  itHIT:       6768  itMISS:      22932  dtACCESS:     232779  dtHIT:     110246  dtMISS:     122533
cpu0_L2C PREFETCH  REQUESTED:    1510346  ISSUED:    1510140  CROSSED:          0  USEFUL:     412990  USELESS:     392346
cpu0_L2C AVERAGE iMISS LATENCY: 25.0157 cycles
cpu0_L2C AVERAGE dMISS LATENCY: 42.8212 cycles
cpu0_L2C AVERAGE itMISS LATENCY: 0.678341 cycles
cpu0_L2C AVERAGE dtMISS LATENCY: 3.63019 cycles
cpu0_L2C PAGE CROSSINGS (TLB HIT):         0 
cpu0_L2C PAGE CROSSINGS (TLB MISS):         0 
cpu0_L2C AVERAGE MISS LATENCY: 72.1454 cycles
LLC TOTAL       ACCESS:    5074880  HIT:    3341802  MISS:    1733078  iACCESS:    2114703  iHIT:    1512884  iMISS:     601819  dACCESS:    2814712  dHIT:    1789216  dMISS:    1025496  itACCESS:      22932  itHIT:       5512  itMISS:      17420  dtACCESS:     122533  dtHIT:      34190  dtMISS:      88343
LLC LOAD         ACCESS:    1315000  HIT:     931736  MISS:     383264  iACCESS:     531622  iHIT:     408344  iMISS:     123278  dACCESS:     783378  dHIT:     523392  dMISS:     259986  itACCESS:          0  itHIT:          0  itMISS:          0  dtACCESS:          0  dtHIT:          0  dtMISS:          0
LLC RFO          ACCESS:     136726  HIT:      77576  MISS:      59150  iACCESS:          0  iHIT:          0  iMISS:          0  dACCESS:     136726  dHIT:      77576  dMISS:      59150  itACCESS:          0  itHIT:          0  itMISS:          0  dtACCESS:          0  dtHIT:          0  dtMISS:          0
LLC PREFETCH     ACCESS:    3259684  HIT:    2077008  MISS:    1182676  iACCESS:    1583081  iHIT:    1104540  iMISS:     478541  dACCESS:    1676603  dHIT:     972468  dMISS:     704135  itACCESS:          0  itHIT:          0  itMISS:          0  dtACCESS:          0  dtHIT:          0  dtMISS:          0
LLC WRITE        ACCESS:     218005  HIT:     215780  MISS:       2225  iACCESS:          0  iHIT:          0  iMISS:          0  dACCESS:     218005  dHIT:     215780  dMISS:       2225  itACCESS:          0  itHIT:          0  itMISS:          0  dtACCESS:          0  dtHIT:          0  dtMISS:          0
LLC TRANSLATION  ACCESS:     145465  HIT:      39702  MISS:     105763  iACCESS:          0  iHIT:          0  iMISS:          0  dACCESS:          0  dHIT:          0  dMISS:          0  itACCESS:      22932  itHIT:       5512  itMISS:      17420  dtACCESS:     122533  dtHIT:      34190  dtMISS:      88343
LLC PREFETCH  REQUESTED:          0  ISSUED:          0  CROSSED:          0  USEFUL:          0  USELESS:          0
LLC AVERAGE iMISS LATENCY: 51.3827 cycles
LLC AVERAGE dMISS LATENCY: 100.701 cycles
LLC AVERAGE itMISS LATENCY: 1.77472 cycles
LLC AVERAGE dtMISS LATENCY: 9.50223 cycles
LLC PAGE CROSSINGS (TLB HIT):         0 
LLC PAGE CROSSINGS (TLB MISS):         0 
LLC AVERAGE MISS LATENCY: 163.36 cycles

PageTableWalker TOTAL       ACCESS:     100069  
PageTableWalker AVERAGE LATENCY: 4.18191 cycles
PageTableWalker TOTAL LATENCY: 418479 cycles

DRAM Statistics
Channel 0
 RQ ROW_BUFFER_HIT:     481047
  ROW_BUFFER_MISS:    1231928
 AVG DBUS CONGESTED CYCLE:    3.63798
 WQ ROW_BUFFER_HIT:      39815
  ROW_BUFFER_MISS:      34422  FULL:          0

