last_page:0x200000000000000
VMEM_RES_CAP:0x100000
PAGE_SIZE:4096
LOG2_PAGE_SIZE:12
LOG2_PAGE_TABLE_SIZE:9
page_table_levels:5
WARNING: physical memory size is smaller than virtual memory size
FDiP enabled with aggresivity 16

*** ChampSim Multicore Out-of-Order Simulator ***

Warmup Instructions: 50000000
Simulation Instructions: 100000000
Number of CPUs: 1
Small page size: 4096
Large page size: 2097152

CPU 0 Bimodal branch predictor
Basic BTB sets: 1024 ways: 8 indirect buffer size: 4096 RAS size: 64
Instruction page size distrubution: 0
Loading instruction page size distribution from /home/bsc/bsc018186/scratch/itp_asplos25_AE/dump/srv495_ap.pdst
Data page size distrubution: 0
Loading data page size distribution from /home/bsc/bsc018186/scratch/itp_asplos25_AE/dump/srv495_ap.pdst
cpu0_L2C IP-based stride prefetcher
cpu0_L1D next line prefetcher
CHiRPing...
cpu0_L1I next line prefetcher
Off-chip DRAM Size: 4 GiB Channels: 1 Width: 64-bit Data Rate: 3200 MT/s
Heartbeat CPU 0 instructions: 10000002 cycles: 2500266 heartbeat IPC: 3.99958 cumulative IPC: 3.99958 (Simulation time: 0 hr 0 min 39 sec) 
Heartbeat CPU 0 instructions: 20000000 cycles: 5000324 heartbeat IPC: 3.99991 cumulative IPC: 3.99975 (Simulation time: 0 hr 1 min 20 sec) 
Heartbeat CPU 0 instructions: 30000002 cycles: 7500399 heartbeat IPC: 3.99989 cumulative IPC: 3.99979 (Simulation time: 0 hr 2 min 1 sec) 
Heartbeat CPU 0 instructions: 40000003 cycles: 10000405 heartbeat IPC: 4 cumulative IPC: 3.99984 (Simulation time: 0 hr 2 min 43 sec) 
Heartbeat CPU 0 instructions: 50000000 cycles: 12500526 heartbeat IPC: 3.99981 cumulative IPC: 3.99984 (Simulation time: 0 hr 3 min 25 sec) 
Warmup finished CPU 0 instructions: 50000000 cycles: 12500527 cumulative IPC: 3.99984 (Simulation time: 0 hr 3 min 25 sec) 

Warmup complete CPU 0 instructions: 50000000 cycles: 12500527 (Simulation time: 0 hr 3 min 25 sec) 

Heartbeat CPU 0 instructions: 60000000 cycles: 33679656 heartbeat IPC: 0.472163 cumulative IPC: 0.472163 (Simulation time: 0 hr 4 min 38 sec) 
Heartbeat CPU 0 instructions: 70000000 cycles: 54797372 heartbeat IPC: 0.473537 cumulative IPC: 0.472849 (Simulation time: 0 hr 5 min 53 sec) 
Heartbeat CPU 0 instructions: 80000001 cycles: 75535893 heartbeat IPC: 0.482195 cumulative IPC: 0.475924 (Simulation time: 0 hr 7 min 6 sec) 
Heartbeat CPU 0 instructions: 90000004 cycles: 96013124 heartbeat IPC: 0.488348 cumulative IPC: 0.47897 (Simulation time: 0 hr 8 min 19 sec) 
Heartbeat CPU 0 instructions: 100000004 cycles: 116563357 heartbeat IPC: 0.486613 cumulative IPC: 0.480479 (Simulation time: 0 hr 9 min 32 sec) 
*** Reached end of trace: /gpfs/projects/bsc18/MN4/bsc18/romol/ChampSim/traces/qualcomm_srv/srv495_ap.champsimtrace.xz
Heartbeat CPU 0 instructions: 110000004 cycles: 137246051 heartbeat IPC: 0.483497 cumulative IPC: 0.48098 (Simulation time: 0 hr 10 min 45 sec) 
Heartbeat CPU 0 instructions: 120000004 cycles: 158560941 heartbeat IPC: 0.469156 cumulative IPC: 0.479254 (Simulation time: 0 hr 11 min 59 sec) 
Heartbeat CPU 0 instructions: 130000001 cycles: 179549489 heartbeat IPC: 0.476451 cumulative IPC: 0.478902 (Simulation time: 0 hr 13 min 13 sec) 
Heartbeat CPU 0 instructions: 140000002 cycles: 200600835 heartbeat IPC: 0.47503 cumulative IPC: 0.478469 (Simulation time: 0 hr 14 min 26 sec) 
Heartbeat CPU 0 instructions: 150000002 cycles: 221941048 heartbeat IPC: 0.468599 cumulative IPC: 0.477463 (Simulation time: 0 hr 15 min 41 sec) 
Simulation finished CPU 0 instructions: 100000002 cycles: 209440522 cumulative IPC: 0.477463 (Simulation time: 0 hr 15 min 41 sec) 

Simulation complete CPU 0 instructions: 100000002 cycles: 209440522 (Simulation time: 0 hr 15 min 41 sec) 


ChampSim completed all CPUs

Saving instructions large page distribution to /home/bsc/bsc018186/scratch/itp_asplos25_AE/dump/srv495_ap.pdst...
Saving data large page distribution to /home/bsc/bsc018186/scratch/itp_asplos25_AE/dump/srv495_ap.pdst...
=== Simulation ===
CPU 0 runs /gpfs/projects/bsc18/MN4/bsc18/romol/ChampSim/traces/qualcomm_srv/srv495_ap.champsimtrace.xz

Region of Interest Statistics

CPU 0 cumulative IPC: 0.477463 instructions: 100000002 cycles: 209440522
CPU 0 Branch Prediction Accuracy: 80.2549% MPKI: 35.6076 Average ROB Occupancy at Mispredict: 10.7986
Branch type MPKI
BRANCH_DIRECT_JUMP: 1.32005
BRANCH_INDIRECT: 17.7862
BRANCH_CONDITIONAL: 11.5962
BRANCH_DIRECT_CALL: 2.47777
BRANCH_INDIRECT_CALL: 0.69295
BRANCH_RETURN: 1.73447

Instructions large pages: 0
Instructions small pages: 1075
Large page distribution for instructions: 0%

Data large pages: 0
Data small pages: 4728
Large page distribution for data: 0%

cpu0_L1I TOTAL       ACCESS:   35304945  HIT:   27449583  MISS:    7855362  iACCESS:   35304945  iHIT:   27449583  iMISS:    7855362  dACCESS:          0  dHIT:          0  dMISS:          0  itACCESS:          0  itHIT:          0  itMISS:          0  dtACCESS:          0  dtHIT:          0  dtMISS:          0
cpu0_L1I LOAD         ACCESS:   10181119  HIT:    8024776  MISS:    2156343  iACCESS:   10181119  iHIT:    8024776  iMISS:    2156343  dACCESS:          0  dHIT:          0  dMISS:          0  itACCESS:          0  itHIT:          0  itMISS:          0  dtACCESS:          0  dtHIT:          0  dtMISS:          0
cpu0_L1I RFO          ACCESS:          0  HIT:          0  MISS:          0  iACCESS:          0  iHIT:          0  iMISS:          0  dACCESS:          0  dHIT:          0  dMISS:          0  itACCESS:          0  itHIT:          0  itMISS:          0  dtACCESS:          0  dtHIT:          0  dtMISS:          0
cpu0_L1I PREFETCH     ACCESS:   25123826  HIT:   19424807  MISS:    5699019  iACCESS:   25123826  iHIT:   19424807  iMISS:    5699019  dACCESS:          0  dHIT:          0  dMISS:          0  itACCESS:          0  itHIT:          0  itMISS:          0  dtACCESS:          0  dtHIT:          0  dtMISS:          0
cpu0_L1I WRITE        ACCESS:          0  HIT:          0  MISS:          0  iACCESS:          0  iHIT:          0  iMISS:          0  dACCESS:          0  dHIT:          0  dMISS:          0  itACCESS:          0  itHIT:          0  itMISS:          0  dtACCESS:          0  dtHIT:          0  dtMISS:          0
cpu0_L1I TRANSLATION  ACCESS:          0  HIT:          0  MISS:          0  iACCESS:          0  iHIT:          0  iMISS:          0  dACCESS:          0  dHIT:          0  dMISS:          0  itACCESS:          0  itHIT:          0  itMISS:          0  dtACCESS:          0  dtHIT:          0  dtMISS:          0
cpu0_L1I PREFETCH  REQUESTED:   27518619  ISSUED:   27518619  CROSSED:          0  USEFUL:    1971606  USELESS:     653013
cpu0_L1I AVERAGE iMISS LATENCY: 19.9884 cycles
cpu0_L1I AVERAGE dMISS LATENCY: 0 cycles
cpu0_L1I AVERAGE itMISS LATENCY: 0 cycles
cpu0_L1I AVERAGE dtMISS LATENCY: 0 cycles
cpu0_L1I PAGE CROSSINGS (TLB HIT):         0 
cpu0_L1I PAGE CROSSINGS (TLB MISS):         0 
cpu0_L1I AVERAGE MISS LATENCY: 19.9884 cycles
cpu0_ITLB TOTAL       ACCESS:   29794265  HIT:   27843233  MISS:    1951032  iACCESS:   29794265  iHIT:   27843233  iMISS:    1951032  dACCESS:          0  dHIT:          0  dMISS:          0  itACCESS:          0  itHIT:          0  itMISS:          0  dtACCESS:          0  dtHIT:          0  dtMISS:          0
cpu0_ITLB LOAD         ACCESS:   29794265  HIT:   27843233  MISS:    1951032  iACCESS:   29794265  iHIT:   27843233  iMISS:    1951032  dACCESS:          0  dHIT:          0  dMISS:          0  itACCESS:          0  itHIT:          0  itMISS:          0  dtACCESS:          0  dtHIT:          0  dtMISS:          0
cpu0_ITLB RFO          ACCESS:          0  HIT:          0  MISS:          0  iACCESS:          0  iHIT:          0  iMISS:          0  dACCESS:          0  dHIT:          0  dMISS:          0  itACCESS:          0  itHIT:          0  itMISS:          0  dtACCESS:          0  dtHIT:          0  dtMISS:          0
cpu0_ITLB PREFETCH     ACCESS:          0  HIT:          0  MISS:          0  iACCESS:          0  iHIT:          0  iMISS:          0  dACCESS:          0  dHIT:          0  dMISS:          0  itACCESS:          0  itHIT:          0  itMISS:          0  dtACCESS:          0  dtHIT:          0  dtMISS:          0
cpu0_ITLB WRITE        ACCESS:          0  HIT:          0  MISS:          0  iACCESS:          0  iHIT:          0  iMISS:          0  dACCESS:          0  dHIT:          0  dMISS:          0  itACCESS:          0  itHIT:          0  itMISS:          0  dtACCESS:          0  dtHIT:          0  dtMISS:          0
cpu0_ITLB TRANSLATION  ACCESS:          0  HIT:          0  MISS:          0  iACCESS:          0  iHIT:          0  iMISS:          0  dACCESS:          0  dHIT:          0  dMISS:          0  itACCESS:          0  itHIT:          0  itMISS:          0  dtACCESS:          0  dtHIT:          0  dtMISS:          0
cpu0_ITLB PREFETCH  REQUESTED:          0  ISSUED:          0  CROSSED:          0  USEFUL:     329667  USELESS:      61979
cpu0_ITLB AVERAGE iMISS LATENCY: 7.92265 cycles
cpu0_ITLB AVERAGE dMISS LATENCY: 0 cycles
cpu0_ITLB AVERAGE itMISS LATENCY: 0 cycles
cpu0_ITLB AVERAGE dtMISS LATENCY: 0 cycles
cpu0_ITLB PAGE CROSSINGS (TLB HIT):         0 
cpu0_ITLB PAGE CROSSINGS (TLB MISS):         0 
cpu0_ITLB AVERAGE MISS LATENCY: 7.92265 cycles
cpu0_DTLB TOTAL       ACCESS:   27965985  HIT:   26013705  MISS:    1952280  iACCESS:          0  iHIT:          0  iMISS:          0  dACCESS:   27965985  dHIT:   26013705  dMISS:    1952280  itACCESS:          0  itHIT:          0  itMISS:          0  dtACCESS:          0  dtHIT:          0  dtMISS:          0
cpu0_DTLB LOAD         ACCESS:   27965985  HIT:   26013705  MISS:    1952280  iACCESS:          0  iHIT:          0  iMISS:          0  dACCESS:   27965985  dHIT:   26013705  dMISS:    1952280  itACCESS:          0  itHIT:          0  itMISS:          0  dtACCESS:          0  dtHIT:          0  dtMISS:          0
cpu0_DTLB RFO          ACCESS:          0  HIT:          0  MISS:          0  iACCESS:          0  iHIT:          0  iMISS:          0  dACCESS:          0  dHIT:          0  dMISS:          0  itACCESS:          0  itHIT:          0  itMISS:          0  dtACCESS:          0  dtHIT:          0  dtMISS:          0
cpu0_DTLB PREFETCH     ACCESS:          0  HIT:          0  MISS:          0  iACCESS:          0  iHIT:          0  iMISS:          0  dACCESS:          0  dHIT:          0  dMISS:          0  itACCESS:          0  itHIT:          0  itMISS:          0  dtACCESS:          0  dtHIT:          0  dtMISS:          0
cpu0_DTLB WRITE        ACCESS:          0  HIT:          0  MISS:          0  iACCESS:          0  iHIT:          0  iMISS:          0  dACCESS:          0  dHIT:          0  dMISS:          0  itACCESS:          0  itHIT:          0  itMISS:          0  dtACCESS:          0  dtHIT:          0  dtMISS:          0
cpu0_DTLB TRANSLATION  ACCESS:          0  HIT:          0  MISS:          0  iACCESS:          0  iHIT:          0  iMISS:          0  dACCESS:          0  dHIT:          0  dMISS:          0  itACCESS:          0  itHIT:          0  itMISS:          0  dtACCESS:          0  dtHIT:          0  dtMISS:          0
cpu0_DTLB PREFETCH  REQUESTED:          0  ISSUED:          0  CROSSED:          0  USEFUL:          0  USELESS:          0
cpu0_DTLB AVERAGE iMISS LATENCY: 0 cycles
cpu0_DTLB AVERAGE dMISS LATENCY: 20.9454 cycles
cpu0_DTLB AVERAGE itMISS LATENCY: 0 cycles
cpu0_DTLB AVERAGE dtMISS LATENCY: 0 cycles
cpu0_DTLB PAGE CROSSINGS (TLB HIT):         0 
cpu0_DTLB PAGE CROSSINGS (TLB MISS):         0 
cpu0_DTLB AVERAGE MISS LATENCY: 20.9454 cycles
cpu0_STLB TOTAL       ACCESS:    1611119  HIT:    1373882  MISS:     237237  iACCESS:     391651  iHIT:     301830  iMISS:      89821  dACCESS:    1219468  dHIT:    1072052  dMISS:     147416  itACCESS:          0  itHIT:          0  itMISS:          0  dtACCESS:          0  dtHIT:          0  dtMISS:          0
cpu0_STLB LOAD         ACCESS:    1611119  HIT:    1373882  MISS:     237237  iACCESS:     391651  iHIT:     301830  iMISS:      89821  dACCESS:    1219468  dHIT:    1072052  dMISS:     147416  itACCESS:          0  itHIT:          0  itMISS:          0  dtACCESS:          0  dtHIT:          0  dtMISS:          0
cpu0_STLB RFO          ACCESS:          0  HIT:          0  MISS:          0  iACCESS:          0  iHIT:          0  iMISS:          0  dACCESS:          0  dHIT:          0  dMISS:          0  itACCESS:          0  itHIT:          0  itMISS:          0  dtACCESS:          0  dtHIT:          0  dtMISS:          0
cpu0_STLB PREFETCH     ACCESS:          0  HIT:          0  MISS:          0  iACCESS:          0  iHIT:          0  iMISS:          0  dACCESS:          0  dHIT:          0  dMISS:          0  itACCESS:          0  itHIT:          0  itMISS:          0  dtACCESS:          0  dtHIT:          0  dtMISS:          0
cpu0_STLB WRITE        ACCESS:          0  HIT:          0  MISS:          0  iACCESS:          0  iHIT:          0  iMISS:          0  dACCESS:          0  dHIT:          0  dMISS:          0  itACCESS:          0  itHIT:          0  itMISS:          0  dtACCESS:          0  dtHIT:          0  dtMISS:          0
cpu0_STLB TRANSLATION  ACCESS:          0  HIT:          0  MISS:          0  iACCESS:          0  iHIT:          0  iMISS:          0  dACCESS:          0  dHIT:          0  dMISS:          0  itACCESS:          0  itHIT:          0  itMISS:          0  dtACCESS:          0  dtHIT:          0  dtMISS:          0
cpu0_STLB PREFETCH  REQUESTED:          0  ISSUED:          0  CROSSED:          0  USEFUL:          0  USELESS:          0
cpu0_STLB AVERAGE iMISS LATENCY: 51.9577 cycles
cpu0_STLB AVERAGE dMISS LATENCY: 131.225 cycles
cpu0_STLB AVERAGE itMISS LATENCY: 0 cycles
cpu0_STLB AVERAGE dtMISS LATENCY: 0 cycles
cpu0_STLB PAGE CROSSINGS (TLB HIT):         0 
cpu0_STLB PAGE CROSSINGS (TLB MISS):         0 
cpu0_STLB AVERAGE MISS LATENCY: 183.182 cycles
cpu0_L1D TOTAL       ACCESS:   42567362  HIT:   38391349  MISS:    4176013  iACCESS:          0  iHIT:          0  iMISS:          0  dACCESS:   42269147  dHIT:   38363536  dMISS:    3905611  itACCESS:      96240  itHIT:      15712  itMISS:      80528  dtACCESS:     201975  dtHIT:      12101  dtMISS:     189874
cpu0_L1D LOAD         ACCESS:   19366332  HIT:   17590795  MISS:    1775537  iACCESS:          0  iHIT:          0  iMISS:          0  dACCESS:   19366332  dHIT:   17590795  dMISS:    1775537  itACCESS:          0  itHIT:          0  itMISS:          0  dtACCESS:          0  dtHIT:          0  dtMISS:          0
cpu0_L1D RFO          ACCESS:          0  HIT:          0  MISS:          0  iACCESS:          0  iHIT:          0  iMISS:          0  dACCESS:          0  dHIT:          0  dMISS:          0  itACCESS:          0  itHIT:          0  itMISS:          0  dtACCESS:          0  dtHIT:          0  dtMISS:          0
cpu0_L1D PREFETCH     ACCESS:   12739247  HIT:   11097446  MISS:    1641801  iACCESS:          0  iHIT:          0  iMISS:          0  dACCESS:   12739247  dHIT:   11097446  dMISS:    1641801  itACCESS:          0  itHIT:          0  itMISS:          0  dtACCESS:          0  dtHIT:          0  dtMISS:          0
cpu0_L1D WRITE        ACCESS:   10163568  HIT:    9675295  MISS:     488273  iACCESS:          0  iHIT:          0  iMISS:          0  dACCESS:   10163568  dHIT:    9675295  dMISS:     488273  itACCESS:          0  itHIT:          0  itMISS:          0  dtACCESS:          0  dtHIT:          0  dtMISS:          0
cpu0_L1D TRANSLATION  ACCESS:     298215  HIT:      27813  MISS:     270402  iACCESS:          0  iHIT:          0  iMISS:          0  dACCESS:          0  dHIT:          0  dMISS:          0  itACCESS:      96240  itHIT:      15712  itMISS:      80528  dtACCESS:     201975  dtHIT:      12101  dtMISS:     189874
cpu0_L1D PREFETCH  REQUESTED:   19366332  ISSUED:   17270105  CROSSED:          0  USEFUL:     310625  USELESS:     707922
cpu0_L1D AVERAGE iMISS LATENCY: 0 cycles
cpu0_L1D AVERAGE dMISS LATENCY: 40.7722 cycles
cpu0_L1D AVERAGE itMISS LATENCY: 2.76616 cycles
cpu0_L1D AVERAGE dtMISS LATENCY: 6.97024 cycles
cpu0_L1D PAGE CROSSINGS (TLB HIT):         0 
cpu0_L1D PAGE CROSSINGS (TLB MISS):         0 
cpu0_L1D AVERAGE MISS LATENCY: 50.5086 cycles
cpu0_L2C TOTAL       ACCESS:    7277912  HIT:    3711073  MISS:    3566839  iACCESS:    3354700  iHIT:    2029007  iMISS:    1325693  dACCESS:    3658374  dHIT:    1644717  dMISS:    2013657  itACCESS:      80528  itHIT:      13440  itMISS:      67088  dtACCESS:     184310  dtHIT:      23909  dtMISS:     160401
cpu0_L2C LOAD         ACCESS:    1723072  HIT:     915579  MISS:     807493  iACCESS:     767297  iHIT:     493283  iMISS:     274014  dACCESS:     955775  dHIT:     422296  dMISS:     533479  itACCESS:          0  itHIT:          0  itMISS:          0  dtACCESS:          0  dtHIT:          0  dtMISS:          0
cpu0_L2C RFO          ACCESS:     165420  HIT:      63726  MISS:     101694  iACCESS:          0  iHIT:          0  iMISS:          0  dACCESS:     165420  dHIT:      63726  dMISS:     101694  itACCESS:          0  itHIT:          0  itMISS:          0  dtACCESS:          0  dtHIT:          0  dtMISS:          0
cpu0_L2C PREFETCH     ACCESS:    4848159  HIT:    2419614  MISS:    2428545  iACCESS:    2587403  iHIT:    1535724  iMISS:    1051679  dACCESS:    2260756  dHIT:     883890  dMISS:    1376866  itACCESS:          0  itHIT:          0  itMISS:          0  dtACCESS:          0  dtHIT:          0  dtMISS:          0
cpu0_L2C WRITE        ACCESS:     276423  HIT:     274805  MISS:       1618  iACCESS:          0  iHIT:          0  iMISS:          0  dACCESS:     276423  dHIT:     274805  dMISS:       1618  itACCESS:          0  itHIT:          0  itMISS:          0  dtACCESS:          0  dtHIT:          0  dtMISS:          0
cpu0_L2C TRANSLATION  ACCESS:     264838  HIT:      37349  MISS:     227489  iACCESS:          0  iHIT:          0  iMISS:          0  dACCESS:          0  dHIT:          0  dMISS:          0  itACCESS:      80528  itHIT:      13440  itMISS:      67088  dtACCESS:     184310  dtHIT:      23909  dtMISS:     160401
cpu0_L2C PREFETCH  REQUESTED:    1501308  ISSUED:    1501224  CROSSED:          0  USEFUL:     358445  USELESS:     300865
cpu0_L2C AVERAGE iMISS LATENCY: 35.785 cycles
cpu0_L2C AVERAGE dMISS LATENCY: 61.7877 cycles
cpu0_L2C AVERAGE itMISS LATENCY: 3.01585 cycles
cpu0_L2C AVERAGE dtMISS LATENCY: 7.64759 cycles
cpu0_L2C PAGE CROSSINGS (TLB HIT):         0 
cpu0_L2C PAGE CROSSINGS (TLB MISS):         0 
cpu0_L2C AVERAGE MISS LATENCY: 108.237 cycles
LLC TOTAL       ACCESS:    3523603  HIT:    1517306  MISS:    2006297  iACCESS:    1244349  iHIT:     543570  iMISS:     700779  dACCESS:    2051765  dHIT:     928570  dMISS:    1123195  itACCESS:      67088  itHIT:      12952  itMISS:      54136  dtACCESS:     160401  dtHIT:      32214  dtMISS:     128187
LLC LOAD         ACCESS:     800659  HIT:     369238  MISS:     431421  iACCESS:     272681  iHIT:     122898  iMISS:     149783  dACCESS:     527978  dHIT:     246340  dMISS:     281638  itACCESS:          0  itHIT:          0  itMISS:          0  dtACCESS:          0  dtHIT:          0  dtMISS:          0
LLC RFO          ACCESS:     101688  HIT:      37149  MISS:      64539  iACCESS:          0  iHIT:          0  iMISS:          0  dACCESS:     101688  dHIT:      37149  dMISS:      64539  itACCESS:          0  itHIT:          0  itMISS:          0  dtACCESS:          0  dtHIT:          0  dtMISS:          0
LLC PREFETCH     ACCESS:    2245806  HIT:     926820  MISS:    1318986  iACCESS:     971668  iHIT:     420672  iMISS:     550996  dACCESS:    1274138  dHIT:     506148  dMISS:     767990  itACCESS:          0  itHIT:          0  itMISS:          0  dtACCESS:          0  dtHIT:          0  dtMISS:          0
LLC WRITE        ACCESS:     147961  HIT:     138933  MISS:       9028  iACCESS:          0  iHIT:          0  iMISS:          0  dACCESS:     147961  dHIT:     138933  dMISS:       9028  itACCESS:          0  itHIT:          0  itMISS:          0  dtACCESS:          0  dtHIT:          0  dtMISS:          0
LLC TRANSLATION  ACCESS:     227489  HIT:      45166  MISS:     182323  iACCESS:          0  iHIT:          0  iMISS:          0  dACCESS:          0  dHIT:          0  dMISS:          0  itACCESS:      67088  itHIT:      12952  itMISS:      54136  dtACCESS:     160401  dtHIT:      32214  dtMISS:     128187
LLC PREFETCH  REQUESTED:          0  ISSUED:          0  CROSSED:          0  USEFUL:          0  USELESS:          0
LLC AVERAGE iMISS LATENCY: 51.4654 cycles
LLC AVERAGE dMISS LATENCY: 91.9846 cycles
LLC AVERAGE itMISS LATENCY: 4.70169 cycles
LLC AVERAGE dtMISS LATENCY: 12.0211 cycles
LLC PAGE CROSSINGS (TLB HIT):         0 
LLC PAGE CROSSINGS (TLB MISS):         0 
LLC AVERAGE MISS LATENCY: 160.173 cycles

PageTableWalker TOTAL       ACCESS:     119247  
PageTableWalker AVERAGE LATENCY: 5.03934 cycles
PageTableWalker TOTAL LATENCY: 600925 cycles

DRAM Statistics
Channel 0
 RQ ROW_BUFFER_HIT:     551804
  ROW_BUFFER_MISS:    1435708
 AVG DBUS CONGESTED CYCLE:    3.63737
 WQ ROW_BUFFER_HIT:      39297
  ROW_BUFFER_MISS:      25951  FULL:          0

