last_page:0x200000000000000
VMEM_RES_CAP:0x100000
PAGE_SIZE:4096
LOG2_PAGE_SIZE:12
LOG2_PAGE_TABLE_SIZE:9
page_table_levels:5
WARNING: physical memory size is smaller than virtual memory size
FDiP enabled with aggresivity 16

*** ChampSim Multicore Out-of-Order Simulator ***

Warmup Instructions: 50000000
Simulation Instructions: 100000000
Number of CPUs: 1
Small page size: 4096
Large page size: 2097152

CPU 0 Bimodal branch predictor
Basic BTB sets: 1024 ways: 8 indirect buffer size: 4096 RAS size: 64
Instruction page size distrubution: 0
Loading instruction page size distribution from /home/bsc/bsc018186/scratch/itp_asplos25_AE/dump/srv459_ap.pdst
Data page size distrubution: 0
Loading data page size distribution from /home/bsc/bsc018186/scratch/itp_asplos25_AE/dump/srv459_ap.pdst
cpu0_L2C IP-based stride prefetcher
cpu0_L1D next line prefetcher
cpu0_L1I next line prefetcher
Off-chip DRAM Size: 4 GiB Channels: 1 Width: 64-bit Data Rate: 3200 MT/s
Heartbeat CPU 0 instructions: 10000003 cycles: 2500164 heartbeat IPC: 3.99974 cumulative IPC: 3.99974 (Simulation time: 0 hr 0 min 35 sec) 
Heartbeat CPU 0 instructions: 20000001 cycles: 5000165 heartbeat IPC: 4 cumulative IPC: 3.99987 (Simulation time: 0 hr 1 min 12 sec) 
Heartbeat CPU 0 instructions: 30000003 cycles: 7500171 heartbeat IPC: 4 cumulative IPC: 3.99991 (Simulation time: 0 hr 1 min 50 sec) 
Heartbeat CPU 0 instructions: 40000002 cycles: 10000365 heartbeat IPC: 3.99969 cumulative IPC: 3.99986 (Simulation time: 0 hr 2 min 27 sec) 
Heartbeat CPU 0 instructions: 50000002 cycles: 12500368 heartbeat IPC: 4 cumulative IPC: 3.99989 (Simulation time: 0 hr 3 min 5 sec) 
Warmup finished CPU 0 instructions: 50000002 cycles: 12500369 cumulative IPC: 3.99989 (Simulation time: 0 hr 3 min 5 sec) 

Warmup complete CPU 0 instructions: 50000002 cycles: 12500369 (Simulation time: 0 hr 3 min 5 sec) 

Heartbeat CPU 0 instructions: 60000000 cycles: 27087718 heartbeat IPC: 0.685526 cumulative IPC: 0.685526 (Simulation time: 0 hr 4 min 5 sec) 
Heartbeat CPU 0 instructions: 70000000 cycles: 41460049 heartbeat IPC: 0.695782 cumulative IPC: 0.690616 (Simulation time: 0 hr 5 min 5 sec) 
Heartbeat CPU 0 instructions: 80000000 cycles: 55333850 heartbeat IPC: 0.720784 cumulative IPC: 0.700387 (Simulation time: 0 hr 6 min 5 sec) 
Heartbeat CPU 0 instructions: 90000001 cycles: 69647622 heartbeat IPC: 0.698628 cumulative IPC: 0.699947 (Simulation time: 0 hr 7 min 5 sec) 
Heartbeat CPU 0 instructions: 100000002 cycles: 83761926 heartbeat IPC: 0.708502 cumulative IPC: 0.701641 (Simulation time: 0 hr 8 min 5 sec) 
*** Reached end of trace: /gpfs/projects/bsc18/MN4/bsc18/romol/ChampSim/traces/qualcomm_srv/srv459_ap.champsimtrace.xz
Heartbeat CPU 0 instructions: 110000001 cycles: 97641146 heartbeat IPC: 0.720502 cumulative IPC: 0.704716 (Simulation time: 0 hr 9 min 5 sec) 
Heartbeat CPU 0 instructions: 120000002 cycles: 110929395 heartbeat IPC: 0.752545 cumulative IPC: 0.711173 (Simulation time: 0 hr 10 min 4 sec) 
Heartbeat CPU 0 instructions: 130000000 cycles: 124736493 heartbeat IPC: 0.724266 cumulative IPC: 0.712783 (Simulation time: 0 hr 11 min 4 sec) 
Heartbeat CPU 0 instructions: 140000002 cycles: 138387598 heartbeat IPC: 0.732542 cumulative IPC: 0.714926 (Simulation time: 0 hr 12 min 3 sec) 
Heartbeat CPU 0 instructions: 150000000 cycles: 152282474 heartbeat IPC: 0.71969 cumulative IPC: 0.7154 (Simulation time: 0 hr 13 min 4 sec) 
Simulation finished CPU 0 instructions: 100000002 cycles: 139782107 cumulative IPC: 0.7154 (Simulation time: 0 hr 13 min 4 sec) 

Simulation complete CPU 0 instructions: 100000002 cycles: 139782107 (Simulation time: 0 hr 13 min 4 sec) 


ChampSim completed all CPUs

Saving instructions large page distribution to /home/bsc/bsc018186/scratch/itp_asplos25_AE/dump/srv459_ap.pdst...
Saving data large page distribution to /home/bsc/bsc018186/scratch/itp_asplos25_AE/dump/srv459_ap.pdst...
=== Simulation ===
CPU 0 runs /gpfs/projects/bsc18/MN4/bsc18/romol/ChampSim/traces/qualcomm_srv/srv459_ap.champsimtrace.xz

Region of Interest Statistics

CPU 0 cumulative IPC: 0.7154 instructions: 100000002 cycles: 139782107
CPU 0 Branch Prediction Accuracy: 83.3738% MPKI: 29.7268 Average ROB Occupancy at Mispredict: 12.4123
Branch type MPKI
BRANCH_DIRECT_JUMP: 1.02552
BRANCH_INDIRECT: 15.3168
BRANCH_CONDITIONAL: 9.68338
BRANCH_DIRECT_CALL: 1.84683
BRANCH_INDIRECT_CALL: 0.51366
BRANCH_RETURN: 1.34066

Instructions large pages: 0
Instructions small pages: 995
Large page distribution for instructions: 0%

Data large pages: 0
Data small pages: 10329
Large page distribution for data: 0%

cpu0_L1I TOTAL       ACCESS:   35162008  HIT:   26941123  MISS:    8220885  iACCESS:   35162008  iHIT:   26941123  iMISS:    8220885  dACCESS:          0  dHIT:          0  dMISS:          0  itACCESS:          0  itHIT:          0  itMISS:          0  dtACCESS:          0  dtHIT:          0  dtMISS:          0
cpu0_L1I LOAD         ACCESS:   10331216  HIT:    8033126  MISS:    2298090  iACCESS:   10331216  iHIT:    8033126  iMISS:    2298090  dACCESS:          0  dHIT:          0  dMISS:          0  itACCESS:          0  itHIT:          0  itMISS:          0  dtACCESS:          0  dtHIT:          0  dtMISS:          0
cpu0_L1I RFO          ACCESS:          0  HIT:          0  MISS:          0  iACCESS:          0  iHIT:          0  iMISS:          0  dACCESS:          0  dHIT:          0  dMISS:          0  itACCESS:          0  itHIT:          0  itMISS:          0  dtACCESS:          0  dtHIT:          0  dtMISS:          0
cpu0_L1I PREFETCH     ACCESS:   24830792  HIT:   18907997  MISS:    5922795  iACCESS:   24830792  iHIT:   18907997  iMISS:    5922795  dACCESS:          0  dHIT:          0  dMISS:          0  itACCESS:          0  itHIT:          0  itMISS:          0  dtACCESS:          0  dtHIT:          0  dtMISS:          0
cpu0_L1I WRITE        ACCESS:          0  HIT:          0  MISS:          0  iACCESS:          0  iHIT:          0  iMISS:          0  dACCESS:          0  dHIT:          0  dMISS:          0  itACCESS:          0  itHIT:          0  itMISS:          0  dtACCESS:          0  dtHIT:          0  dtMISS:          0
cpu0_L1I TRANSLATION  ACCESS:          0  HIT:          0  MISS:          0  iACCESS:          0  iHIT:          0  iMISS:          0  dACCESS:          0  dHIT:          0  dMISS:          0  itACCESS:          0  itHIT:          0  itMISS:          0  dtACCESS:          0  dtHIT:          0  dtMISS:          0
cpu0_L1I PREFETCH  REQUESTED:   27216941  ISSUED:   27215977  CROSSED:          0  USEFUL:    1890197  USELESS:     622719
cpu0_L1I AVERAGE iMISS LATENCY: 13.387 cycles
cpu0_L1I AVERAGE dMISS LATENCY: 0 cycles
cpu0_L1I AVERAGE itMISS LATENCY: 0 cycles
cpu0_L1I AVERAGE dtMISS LATENCY: 0 cycles
cpu0_L1I PAGE CROSSINGS (TLB HIT):         0 
cpu0_L1I PAGE CROSSINGS (TLB MISS):         0 
cpu0_L1I AVERAGE MISS LATENCY: 13.387 cycles
cpu0_ITLB TOTAL       ACCESS:   29100375  HIT:   27146144  MISS:    1954231  iACCESS:   29100375  iHIT:   27146144  iMISS:    1954231  dACCESS:          0  dHIT:          0  dMISS:          0  itACCESS:          0  itHIT:          0  itMISS:          0  dtACCESS:          0  dtHIT:          0  dtMISS:          0
cpu0_ITLB LOAD         ACCESS:   29100375  HIT:   27146144  MISS:    1954231  iACCESS:   29100375  iHIT:   27146144  iMISS:    1954231  dACCESS:          0  dHIT:          0  dMISS:          0  itACCESS:          0  itHIT:          0  itMISS:          0  dtACCESS:          0  dtHIT:          0  dtMISS:          0
cpu0_ITLB RFO          ACCESS:          0  HIT:          0  MISS:          0  iACCESS:          0  iHIT:          0  iMISS:          0  dACCESS:          0  dHIT:          0  dMISS:          0  itACCESS:          0  itHIT:          0  itMISS:          0  dtACCESS:          0  dtHIT:          0  dtMISS:          0
cpu0_ITLB PREFETCH     ACCESS:          0  HIT:          0  MISS:          0  iACCESS:          0  iHIT:          0  iMISS:          0  dACCESS:          0  dHIT:          0  dMISS:          0  itACCESS:          0  itHIT:          0  itMISS:          0  dtACCESS:          0  dtHIT:          0  dtMISS:          0
cpu0_ITLB WRITE        ACCESS:          0  HIT:          0  MISS:          0  iACCESS:          0  iHIT:          0  iMISS:          0  dACCESS:          0  dHIT:          0  dMISS:          0  itACCESS:          0  itHIT:          0  itMISS:          0  dtACCESS:          0  dtHIT:          0  dtMISS:          0
cpu0_ITLB TRANSLATION  ACCESS:          0  HIT:          0  MISS:          0  iACCESS:          0  iHIT:          0  iMISS:          0  dACCESS:          0  dHIT:          0  dMISS:          0  itACCESS:          0  itHIT:          0  itMISS:          0  dtACCESS:          0  dtHIT:          0  dtMISS:          0
cpu0_ITLB PREFETCH  REQUESTED:          0  ISSUED:          0  CROSSED:          0  USEFUL:     320667  USELESS:      65443
cpu0_ITLB AVERAGE iMISS LATENCY: 3.08306 cycles
cpu0_ITLB AVERAGE dMISS LATENCY: 0 cycles
cpu0_ITLB AVERAGE itMISS LATENCY: 0 cycles
cpu0_ITLB AVERAGE dtMISS LATENCY: 0 cycles
cpu0_ITLB PAGE CROSSINGS (TLB HIT):         0 
cpu0_ITLB PAGE CROSSINGS (TLB MISS):         0 
cpu0_ITLB AVERAGE MISS LATENCY: 3.08306 cycles
cpu0_DTLB TOTAL       ACCESS:   27697982  HIT:   25770162  MISS:    1927820  iACCESS:          0  iHIT:          0  iMISS:          0  dACCESS:   27697982  dHIT:   25770162  dMISS:    1927820  itACCESS:          0  itHIT:          0  itMISS:          0  dtACCESS:          0  dtHIT:          0  dtMISS:          0
cpu0_DTLB LOAD         ACCESS:   27697982  HIT:   25770162  MISS:    1927820  iACCESS:          0  iHIT:          0  iMISS:          0  dACCESS:   27697982  dHIT:   25770162  dMISS:    1927820  itACCESS:          0  itHIT:          0  itMISS:          0  dtACCESS:          0  dtHIT:          0  dtMISS:          0
cpu0_DTLB RFO          ACCESS:          0  HIT:          0  MISS:          0  iACCESS:          0  iHIT:          0  iMISS:          0  dACCESS:          0  dHIT:          0  dMISS:          0  itACCESS:          0  itHIT:          0  itMISS:          0  dtACCESS:          0  dtHIT:          0  dtMISS:          0
cpu0_DTLB PREFETCH     ACCESS:          0  HIT:          0  MISS:          0  iACCESS:          0  iHIT:          0  iMISS:          0  dACCESS:          0  dHIT:          0  dMISS:          0  itACCESS:          0  itHIT:          0  itMISS:          0  dtACCESS:          0  dtHIT:          0  dtMISS:          0
cpu0_DTLB WRITE        ACCESS:          0  HIT:          0  MISS:          0  iACCESS:          0  iHIT:          0  iMISS:          0  dACCESS:          0  dHIT:          0  dMISS:          0  itACCESS:          0  itHIT:          0  itMISS:          0  dtACCESS:          0  dtHIT:          0  dtMISS:          0
cpu0_DTLB TRANSLATION  ACCESS:          0  HIT:          0  MISS:          0  iACCESS:          0  iHIT:          0  iMISS:          0  dACCESS:          0  dHIT:          0  dMISS:          0  itACCESS:          0  itHIT:          0  itMISS:          0  dtACCESS:          0  dtHIT:          0  dtMISS:          0
cpu0_DTLB PREFETCH  REQUESTED:          0  ISSUED:          0  CROSSED:          0  USEFUL:          0  USELESS:          0
cpu0_DTLB AVERAGE iMISS LATENCY: 0 cycles
cpu0_DTLB AVERAGE dMISS LATENCY: 10.4391 cycles
cpu0_DTLB AVERAGE itMISS LATENCY: 0 cycles
cpu0_DTLB AVERAGE dtMISS LATENCY: 0 cycles
cpu0_DTLB PAGE CROSSINGS (TLB HIT):         0 
cpu0_DTLB PAGE CROSSINGS (TLB MISS):         0 
cpu0_DTLB AVERAGE MISS LATENCY: 10.4391 cycles
cpu0_STLB TOTAL       ACCESS:    1536332  HIT:    1362668  MISS:     173664  iACCESS:     386125  iHIT:     323045  iMISS:      63080  dACCESS:    1150207  dHIT:    1039623  dMISS:     110584  itACCESS:          0  itHIT:          0  itMISS:          0  dtACCESS:          0  dtHIT:          0  dtMISS:          0
cpu0_STLB LOAD         ACCESS:    1536332  HIT:    1362668  MISS:     173664  iACCESS:     386125  iHIT:     323045  iMISS:      63080  dACCESS:    1150207  dHIT:    1039623  dMISS:     110584  itACCESS:          0  itHIT:          0  itMISS:          0  dtACCESS:          0  dtHIT:          0  dtMISS:          0
cpu0_STLB RFO          ACCESS:          0  HIT:          0  MISS:          0  iACCESS:          0  iHIT:          0  iMISS:          0  dACCESS:          0  dHIT:          0  dMISS:          0  itACCESS:          0  itHIT:          0  itMISS:          0  dtACCESS:          0  dtHIT:          0  dtMISS:          0
cpu0_STLB PREFETCH     ACCESS:          0  HIT:          0  MISS:          0  iACCESS:          0  iHIT:          0  iMISS:          0  dACCESS:          0  dHIT:          0  dMISS:          0  itACCESS:          0  itHIT:          0  itMISS:          0  dtACCESS:          0  dtHIT:          0  dtMISS:          0
cpu0_STLB WRITE        ACCESS:          0  HIT:          0  MISS:          0  iACCESS:          0  iHIT:          0  iMISS:          0  dACCESS:          0  dHIT:          0  dMISS:          0  itACCESS:          0  itHIT:          0  itMISS:          0  dtACCESS:          0  dtHIT:          0  dtMISS:          0
cpu0_STLB TRANSLATION  ACCESS:          0  HIT:          0  MISS:          0  iACCESS:          0  iHIT:          0  iMISS:          0  dACCESS:          0  dHIT:          0  dMISS:          0  itACCESS:          0  itHIT:          0  itMISS:          0  dtACCESS:          0  dtHIT:          0  dtMISS:          0
cpu0_STLB PREFETCH  REQUESTED:          0  ISSUED:          0  CROSSED:          0  USEFUL:          0  USELESS:          0
cpu0_STLB AVERAGE iMISS LATENCY: 17.1132 cycles
cpu0_STLB AVERAGE dMISS LATENCY: 63.0736 cycles
cpu0_STLB AVERAGE itMISS LATENCY: 0 cycles
cpu0_STLB AVERAGE dtMISS LATENCY: 0 cycles
cpu0_STLB PAGE CROSSINGS (TLB HIT):         0 
cpu0_STLB PAGE CROSSINGS (TLB MISS):         0 
cpu0_STLB AVERAGE MISS LATENCY: 80.1868 cycles
cpu0_L1D TOTAL       ACCESS:   41387065  HIT:   37969958  MISS:    3417107  iACCESS:          0  iHIT:          0  iMISS:          0  dACCESS:   41153824  dHIT:   37948555  dMISS:    3205269  itACCESS:      68656  itHIT:      10207  itMISS:      58449  dtACCESS:     164585  dtHIT:      11196  dtMISS:     153389
cpu0_L1D LOAD         ACCESS:   18927649  HIT:   17463123  MISS:    1464526  iACCESS:          0  iHIT:          0  iMISS:          0  dACCESS:   18927649  dHIT:   17463123  dMISS:    1464526  itACCESS:          0  itHIT:          0  itMISS:          0  dtACCESS:          0  dtHIT:          0  dtMISS:          0
cpu0_L1D RFO          ACCESS:          0  HIT:          0  MISS:          0  iACCESS:          0  iHIT:          0  iMISS:          0  dACCESS:          0  dHIT:          0  dMISS:          0  itACCESS:          0  itHIT:          0  itMISS:          0  dtACCESS:          0  dtHIT:          0  dtMISS:          0
cpu0_L1D PREFETCH     ACCESS:   12072417  HIT:   10748820  MISS:    1323597  iACCESS:          0  iHIT:          0  iMISS:          0  dACCESS:   12072417  dHIT:   10748820  dMISS:    1323597  itACCESS:          0  itHIT:          0  itMISS:          0  dtACCESS:          0  dtHIT:          0  dtMISS:          0
cpu0_L1D WRITE        ACCESS:   10153758  HIT:    9736612  MISS:     417146  iACCESS:          0  iHIT:          0  iMISS:          0  dACCESS:   10153758  dHIT:    9736612  dMISS:     417146  itACCESS:          0  itHIT:          0  itMISS:          0  dtACCESS:          0  dtHIT:          0  dtMISS:          0
cpu0_L1D TRANSLATION  ACCESS:     233241  HIT:      21403  MISS:     211838  iACCESS:          0  iHIT:          0  iMISS:          0  dACCESS:          0  dHIT:          0  dMISS:          0  itACCESS:      68656  itHIT:      10207  itMISS:      58449  dtACCESS:     164585  dtHIT:      11196  dtMISS:     153389
cpu0_L1D PREFETCH  REQUESTED:   18927649  ISSUED:   16908137  CROSSED:          0  USEFUL:     305045  USELESS:     694520
cpu0_L1D AVERAGE iMISS LATENCY: 0 cycles
cpu0_L1D AVERAGE dMISS LATENCY: 33.4471 cycles
cpu0_L1D AVERAGE itMISS LATENCY: 0.709212 cycles
cpu0_L1D AVERAGE dtMISS LATENCY: 2.46332 cycles
cpu0_L1D PAGE CROSSINGS (TLB HIT):         0 
cpu0_L1D PAGE CROSSINGS (TLB MISS):         0 
cpu0_L1D AVERAGE MISS LATENCY: 36.6197 cycles
cpu0_L2C TOTAL       ACCESS:    6893105  HIT:    1660283  MISS:    5232822  iACCESS:    3259830  iHIT:     852075  iMISS:    2407755  dACCESS:    3428872  dHIT:     686093  dMISS:    2742779  itACCESS:      58449  itHIT:      43414  itMISS:      15035  dtACCESS:     145954  dtHIT:      78701  dtMISS:      67253
cpu0_L2C LOAD         ACCESS:    1699916  HIT:     285604  MISS:    1414312  iACCESS:     779870  iHIT:     142633  iMISS:     637237  dACCESS:     920046  dHIT:     142971  dMISS:     777075  itACCESS:          0  itHIT:          0  itMISS:          0  dtACCESS:          0  dtHIT:          0  dtMISS:          0
cpu0_L2C RFO          ACCESS:     156202  HIT:      52167  MISS:     104035  iACCESS:          0  iHIT:          0  iMISS:          0  dACCESS:     156202  dHIT:      52167  dMISS:     104035  itACCESS:          0  itHIT:          0  itMISS:          0  dtACCESS:          0  dtHIT:          0  dtMISS:          0
cpu0_L2C PREFETCH     ACCESS:    4549134  HIT:    1067405  MISS:    3481729  iACCESS:    2479960  iHIT:     709442  iMISS:    1770518  dACCESS:    2069174  dHIT:     357963  dMISS:    1711211  itACCESS:          0  itHIT:          0  itMISS:          0  dtACCESS:          0  dtHIT:          0  dtMISS:          0
cpu0_L2C WRITE        ACCESS:     283450  HIT:     132992  MISS:     150458  iACCESS:          0  iHIT:          0  iMISS:          0  dACCESS:     283450  dHIT:     132992  dMISS:     150458  itACCESS:          0  itHIT:          0  itMISS:          0  dtACCESS:          0  dtHIT:          0  dtMISS:          0
cpu0_L2C TRANSLATION  ACCESS:     204403  HIT:     122115  MISS:      82288  iACCESS:          0  iHIT:          0  iMISS:          0  dACCESS:          0  dHIT:          0  dMISS:          0  itACCESS:      58449  itHIT:      43414  itMISS:      15035  dtACCESS:     145954  dtHIT:      78701  dtMISS:      67253
cpu0_L2C PREFETCH  REQUESTED:    1314895  ISSUED:    1314895  CROSSED:          0  USEFUL:     396387  USELESS:     356587
cpu0_L2C AVERAGE iMISS LATENCY: 15.3029 cycles
cpu0_L2C AVERAGE dMISS LATENCY: 24.8868 cycles
cpu0_L2C AVERAGE itMISS LATENCY: 0.3595 cycles
cpu0_L2C AVERAGE dtMISS LATENCY: 1.34314 cycles
cpu0_L2C PAGE CROSSINGS (TLB HIT):         0 
cpu0_L2C PAGE CROSSINGS (TLB MISS):         0 
cpu0_L2C AVERAGE MISS LATENCY: 41.8923 cycles
LLC TOTAL       ACCESS:    5126013  HIT:    4330117  MISS:     795896  iACCESS:    2360278  iHIT:    2120929  iMISS:     239349  dACCESS:    2683447  dHIT:    2168903  dMISS:     514544  itACCESS:      15035  itHIT:       5714  itMISS:       9321  dtACCESS:      67253  dtHIT:      34571  dtMISS:      32682
LLC LOAD         ACCESS:    1412740  HIT:    1231564  MISS:     181176  iACCESS:     636086  iHIT:     583695  iMISS:      52391  dACCESS:     776654  dHIT:     647869  dMISS:     128785  itACCESS:          0  itHIT:          0  itMISS:          0  dtACCESS:          0  dtHIT:          0  dtMISS:          0
LLC RFO          ACCESS:     104035  HIT:      69944  MISS:      34091  iACCESS:          0  iHIT:          0  iMISS:          0  dACCESS:     104035  dHIT:      69944  dMISS:      34091  itACCESS:          0  itHIT:          0  itMISS:          0  dtACCESS:          0  dtHIT:          0  dtMISS:          0
LLC PREFETCH     ACCESS:    3386715  HIT:    2856956  MISS:     529759  iACCESS:    1724192  iHIT:    1537234  iMISS:     186958  dACCESS:    1662523  dHIT:    1319722  dMISS:     342801  itACCESS:          0  itHIT:          0  itMISS:          0  dtACCESS:          0  dtHIT:          0  dtMISS:          0
LLC WRITE        ACCESS:     140235  HIT:     131368  MISS:       8867  iACCESS:          0  iHIT:          0  iMISS:          0  dACCESS:     140235  dHIT:     131368  dMISS:       8867  itACCESS:          0  itHIT:          0  itMISS:          0  dtACCESS:          0  dtHIT:          0  dtMISS:          0
LLC TRANSLATION  ACCESS:      82288  HIT:      40285  MISS:      42003  iACCESS:          0  iHIT:          0  iMISS:          0  dACCESS:          0  dHIT:          0  dMISS:          0  itACCESS:      15035  itHIT:       5714  itMISS:       9321  dtACCESS:      67253  dtHIT:      34571  dtMISS:      32682
LLC PREFETCH  REQUESTED:          0  ISSUED:          0  CROSSED:          0  USEFUL:          0  USELESS:          0
LLC AVERAGE iMISS LATENCY: 43.3896 cycles
LLC AVERAGE dMISS LATENCY: 101.979 cycles
LLC AVERAGE itMISS LATENCY: 1.99354 cycles
LLC AVERAGE dtMISS LATENCY: 7.18549 cycles
LLC PAGE CROSSINGS (TLB HIT):         0 
LLC PAGE CROSSINGS (TLB MISS):         0 
LLC AVERAGE MISS LATENCY: 154.548 cycles

PageTableWalker TOTAL       ACCESS:      85932  
PageTableWalker AVERAGE LATENCY: 4.52412 cycles
PageTableWalker TOTAL LATENCY: 388766 cycles

DRAM Statistics
Channel 0
 RQ ROW_BUFFER_HIT:     221779
  ROW_BUFFER_MISS:     565183
 AVG DBUS CONGESTED CYCLE:    3.61472
 WQ ROW_BUFFER_HIT:      15855
  ROW_BUFFER_MISS:      20876  FULL:          0

