last_page:0x200000000000000
VMEM_RES_CAP:0x100000
PAGE_SIZE:4096
LOG2_PAGE_SIZE:12
LOG2_PAGE_TABLE_SIZE:9
page_table_levels:5
WARNING: physical memory size is smaller than virtual memory size
FDiP enabled with aggresivity 16

*** ChampSim Multicore Out-of-Order Simulator ***

Warmup Instructions: 50000000
Simulation Instructions: 100000000
Number of CPUs: 1
Small page size: 4096
Large page size: 2097152

CPU 0 Bimodal branch predictor
Basic BTB sets: 1024 ways: 8 indirect buffer size: 4096 RAS size: 64
Instruction page size distrubution: 0
Loading instruction page size distribution from /home/bsc/bsc018186/scratch/itp_asplos25_AE/dump/srv499_ap.pdst
Data page size distrubution: 0
Loading data page size distribution from /home/bsc/bsc018186/scratch/itp_asplos25_AE/dump/srv499_ap.pdst
cpu0_L2C IP-based stride prefetcher
cpu0_L2C is using PTP replacement policy:
	TLB_STRESS_THRESHOLD:0
	PTE_EVICTION_RATIO:0
cpu0_L1D next line prefetcher
cpu0_L1I next line prefetcher
Off-chip DRAM Size: 4 GiB Channels: 1 Width: 64-bit Data Rate: 3200 MT/s
Heartbeat CPU 0 instructions: 10000003 cycles: 2500137 heartbeat IPC: 3.99979 cumulative IPC: 3.99979 (Simulation time: 0 hr 0 min 37 sec) 
Heartbeat CPU 0 instructions: 20000003 cycles: 5000193 heartbeat IPC: 3.99992 cumulative IPC: 3.99985 (Simulation time: 0 hr 1 min 16 sec) 
Heartbeat CPU 0 instructions: 30000003 cycles: 7500207 heartbeat IPC: 3.99998 cumulative IPC: 3.9999 (Simulation time: 0 hr 1 min 56 sec) 
Heartbeat CPU 0 instructions: 40000002 cycles: 10000215 heartbeat IPC: 3.99999 cumulative IPC: 3.99992 (Simulation time: 0 hr 2 min 36 sec) 
Heartbeat CPU 0 instructions: 50000002 cycles: 12500251 heartbeat IPC: 3.99995 cumulative IPC: 3.99992 (Simulation time: 0 hr 3 min 17 sec) 
Warmup finished CPU 0 instructions: 50000002 cycles: 12500252 cumulative IPC: 3.99992 (Simulation time: 0 hr 3 min 17 sec) 

Warmup complete CPU 0 instructions: 50000002 cycles: 12500252 (Simulation time: 0 hr 3 min 17 sec) 

Heartbeat CPU 0 instructions: 60000003 cycles: 26005269 heartbeat IPC: 0.740466 cumulative IPC: 0.740466 (Simulation time: 0 hr 4 min 19 sec) 
Heartbeat CPU 0 instructions: 70000001 cycles: 40090399 heartbeat IPC: 0.709969 cumulative IPC: 0.724897 (Simulation time: 0 hr 5 min 23 sec) 
Heartbeat CPU 0 instructions: 80000004 cycles: 53603687 heartbeat IPC: 0.740013 cumulative IPC: 0.729867 (Simulation time: 0 hr 6 min 27 sec) 
Heartbeat CPU 0 instructions: 90000000 cycles: 68228739 heartbeat IPC: 0.683758 cumulative IPC: 0.717766 (Simulation time: 0 hr 7 min 33 sec) 
Heartbeat CPU 0 instructions: 100000003 cycles: 82978157 heartbeat IPC: 0.677994 cumulative IPC: 0.709443 (Simulation time: 0 hr 8 min 39 sec) 
*** Reached end of trace: /gpfs/projects/bsc18/MN4/bsc18/romol/ChampSim/traces/qualcomm_srv/srv499_ap.champsimtrace.xz
Heartbeat CPU 0 instructions: 110000003 cycles: 96230238 heartbeat IPC: 0.754599 cumulative IPC: 0.71659 (Simulation time: 0 hr 9 min 43 sec) 
Heartbeat CPU 0 instructions: 120000003 cycles: 109897058 heartbeat IPC: 0.7317 cumulative IPC: 0.71871 (Simulation time: 0 hr 10 min 48 sec) 
Heartbeat CPU 0 instructions: 130000002 cycles: 123978195 heartbeat IPC: 0.71017 cumulative IPC: 0.717631 (Simulation time: 0 hr 11 min 53 sec) 
Heartbeat CPU 0 instructions: 140000001 cycles: 137712379 heartbeat IPC: 0.728111 cumulative IPC: 0.718781 (Simulation time: 0 hr 12 min 58 sec) 
Heartbeat CPU 0 instructions: 150000001 cycles: 151268503 heartbeat IPC: 0.737674 cumulative IPC: 0.720626 (Simulation time: 0 hr 14 min 2 sec) 
Simulation finished CPU 0 instructions: 100000004 cycles: 138768253 cumulative IPC: 0.720626 (Simulation time: 0 hr 14 min 2 sec) 

Simulation complete CPU 0 instructions: 100000004 cycles: 138768253 (Simulation time: 0 hr 14 min 2 sec) 


ChampSim completed all CPUs

Saving instructions large page distribution to /home/bsc/bsc018186/scratch/itp_asplos25_AE/dump/srv499_ap.pdst...
Saving data large page distribution to /home/bsc/bsc018186/scratch/itp_asplos25_AE/dump/srv499_ap.pdst...
=== Simulation ===
CPU 0 runs /gpfs/projects/bsc18/MN4/bsc18/romol/ChampSim/traces/qualcomm_srv/srv499_ap.champsimtrace.xz

Region of Interest Statistics

CPU 0 cumulative IPC: 0.720626 instructions: 100000004 cycles: 138768253
CPU 0 Branch Prediction Accuracy: 83.5909% MPKI: 29.3426 Average ROB Occupancy at Mispredict: 12.4571
Branch type MPKI
BRANCH_DIRECT_JUMP: 0.99599
BRANCH_INDIRECT: 15.184
BRANCH_CONDITIONAL: 9.55715
BRANCH_DIRECT_CALL: 1.80037
BRANCH_INDIRECT_CALL: 0.50025
BRANCH_RETURN: 1.30486

Instructions large pages: 0
Instructions small pages: 1039
Large page distribution for instructions: 0%

Data large pages: 0
Data small pages: 10233
Large page distribution for data: 0%

cpu0_L1I TOTAL       ACCESS:   35262263  HIT:   26805139  MISS:    8457124  iACCESS:   35262263  iHIT:   26805139  iMISS:    8457124  dACCESS:          0  dHIT:          0  dMISS:          0  itACCESS:          0  itHIT:          0  itMISS:          0  dtACCESS:          0  dtHIT:          0  dtMISS:          0
cpu0_L1I LOAD         ACCESS:   10354241  HIT:    7979176  MISS:    2375065  iACCESS:   10354241  iHIT:    7979176  iMISS:    2375065  dACCESS:          0  dHIT:          0  dMISS:          0  itACCESS:          0  itHIT:          0  itMISS:          0  dtACCESS:          0  dtHIT:          0  dtMISS:          0
cpu0_L1I RFO          ACCESS:          0  HIT:          0  MISS:          0  iACCESS:          0  iHIT:          0  iMISS:          0  dACCESS:          0  dHIT:          0  dMISS:          0  itACCESS:          0  itHIT:          0  itMISS:          0  dtACCESS:          0  dtHIT:          0  dtMISS:          0
cpu0_L1I PREFETCH     ACCESS:   24908022  HIT:   18825963  MISS:    6082059  iACCESS:   24908022  iHIT:   18825963  iMISS:    6082059  dACCESS:          0  dHIT:          0  dMISS:          0  itACCESS:          0  itHIT:          0  itMISS:          0  dtACCESS:          0  dtHIT:          0  dtMISS:          0
cpu0_L1I WRITE        ACCESS:          0  HIT:          0  MISS:          0  iACCESS:          0  iHIT:          0  iMISS:          0  dACCESS:          0  dHIT:          0  dMISS:          0  itACCESS:          0  itHIT:          0  itMISS:          0  dtACCESS:          0  dtHIT:          0  dtMISS:          0
cpu0_L1I TRANSLATION  ACCESS:          0  HIT:          0  MISS:          0  iACCESS:          0  iHIT:          0  iMISS:          0  dACCESS:          0  dHIT:          0  dMISS:          0  itACCESS:          0  itHIT:          0  itMISS:          0  dtACCESS:          0  dtHIT:          0  dtMISS:          0
cpu0_L1I PREFETCH  REQUESTED:   27233524  ISSUED:   27231299  CROSSED:          0  USEFUL:    1897285  USELESS:     626180
cpu0_L1I AVERAGE iMISS LATENCY: 13.4675 cycles
cpu0_L1I AVERAGE dMISS LATENCY: 0 cycles
cpu0_L1I AVERAGE itMISS LATENCY: 0 cycles
cpu0_L1I AVERAGE dtMISS LATENCY: 0 cycles
cpu0_L1I PAGE CROSSINGS (TLB HIT):         0 
cpu0_L1I PAGE CROSSINGS (TLB MISS):         0 
cpu0_L1I AVERAGE MISS LATENCY: 13.4675 cycles
cpu0_ITLB TOTAL       ACCESS:   29100562  HIT:   27131511  MISS:    1969051  iACCESS:   29100562  iHIT:   27131511  iMISS:    1969051  dACCESS:          0  dHIT:          0  dMISS:          0  itACCESS:          0  itHIT:          0  itMISS:          0  dtACCESS:          0  dtHIT:          0  dtMISS:          0
cpu0_ITLB LOAD         ACCESS:   29100562  HIT:   27131511  MISS:    1969051  iACCESS:   29100562  iHIT:   27131511  iMISS:    1969051  dACCESS:          0  dHIT:          0  dMISS:          0  itACCESS:          0  itHIT:          0  itMISS:          0  dtACCESS:          0  dtHIT:          0  dtMISS:          0
cpu0_ITLB RFO          ACCESS:          0  HIT:          0  MISS:          0  iACCESS:          0  iHIT:          0  iMISS:          0  dACCESS:          0  dHIT:          0  dMISS:          0  itACCESS:          0  itHIT:          0  itMISS:          0  dtACCESS:          0  dtHIT:          0  dtMISS:          0
cpu0_ITLB PREFETCH     ACCESS:          0  HIT:          0  MISS:          0  iACCESS:          0  iHIT:          0  iMISS:          0  dACCESS:          0  dHIT:          0  dMISS:          0  itACCESS:          0  itHIT:          0  itMISS:          0  dtACCESS:          0  dtHIT:          0  dtMISS:          0
cpu0_ITLB WRITE        ACCESS:          0  HIT:          0  MISS:          0  iACCESS:          0  iHIT:          0  iMISS:          0  dACCESS:          0  dHIT:          0  dMISS:          0  itACCESS:          0  itHIT:          0  itMISS:          0  dtACCESS:          0  dtHIT:          0  dtMISS:          0
cpu0_ITLB TRANSLATION  ACCESS:          0  HIT:          0  MISS:          0  iACCESS:          0  iHIT:          0  iMISS:          0  dACCESS:          0  dHIT:          0  dMISS:          0  itACCESS:          0  itHIT:          0  itMISS:          0  dtACCESS:          0  dtHIT:          0  dtMISS:          0
cpu0_ITLB PREFETCH  REQUESTED:          0  ISSUED:          0  CROSSED:          0  USEFUL:     321038  USELESS:      66837
cpu0_ITLB AVERAGE iMISS LATENCY: 2.70156 cycles
cpu0_ITLB AVERAGE dMISS LATENCY: 0 cycles
cpu0_ITLB AVERAGE itMISS LATENCY: 0 cycles
cpu0_ITLB AVERAGE dtMISS LATENCY: 0 cycles
cpu0_ITLB PAGE CROSSINGS (TLB HIT):         0 
cpu0_ITLB PAGE CROSSINGS (TLB MISS):         0 
cpu0_ITLB AVERAGE MISS LATENCY: 2.70156 cycles
cpu0_DTLB TOTAL       ACCESS:   27681177  HIT:   25666833  MISS:    2014344  iACCESS:          0  iHIT:          0  iMISS:          0  dACCESS:   27681177  dHIT:   25666833  dMISS:    2014344  itACCESS:          0  itHIT:          0  itMISS:          0  dtACCESS:          0  dtHIT:          0  dtMISS:          0
cpu0_DTLB LOAD         ACCESS:   27681177  HIT:   25666833  MISS:    2014344  iACCESS:          0  iHIT:          0  iMISS:          0  dACCESS:   27681177  dHIT:   25666833  dMISS:    2014344  itACCESS:          0  itHIT:          0  itMISS:          0  dtACCESS:          0  dtHIT:          0  dtMISS:          0
cpu0_DTLB RFO          ACCESS:          0  HIT:          0  MISS:          0  iACCESS:          0  iHIT:          0  iMISS:          0  dACCESS:          0  dHIT:          0  dMISS:          0  itACCESS:          0  itHIT:          0  itMISS:          0  dtACCESS:          0  dtHIT:          0  dtMISS:          0
cpu0_DTLB PREFETCH     ACCESS:          0  HIT:          0  MISS:          0  iACCESS:          0  iHIT:          0  iMISS:          0  dACCESS:          0  dHIT:          0  dMISS:          0  itACCESS:          0  itHIT:          0  itMISS:          0  dtACCESS:          0  dtHIT:          0  dtMISS:          0
cpu0_DTLB WRITE        ACCESS:          0  HIT:          0  MISS:          0  iACCESS:          0  iHIT:          0  iMISS:          0  dACCESS:          0  dHIT:          0  dMISS:          0  itACCESS:          0  itHIT:          0  itMISS:          0  dtACCESS:          0  dtHIT:          0  dtMISS:          0
cpu0_DTLB TRANSLATION  ACCESS:          0  HIT:          0  MISS:          0  iACCESS:          0  iHIT:          0  iMISS:          0  dACCESS:          0  dHIT:          0  dMISS:          0  itACCESS:          0  itHIT:          0  itMISS:          0  dtACCESS:          0  dtHIT:          0  dtMISS:          0
cpu0_DTLB PREFETCH  REQUESTED:          0  ISSUED:          0  CROSSED:          0  USEFUL:          0  USELESS:          0
cpu0_DTLB AVERAGE iMISS LATENCY: 0 cycles
cpu0_DTLB AVERAGE dMISS LATENCY: 8.93889 cycles
cpu0_DTLB AVERAGE itMISS LATENCY: 0 cycles
cpu0_DTLB AVERAGE dtMISS LATENCY: 0 cycles
cpu0_DTLB PAGE CROSSINGS (TLB HIT):         0 
cpu0_DTLB PAGE CROSSINGS (TLB MISS):         0 
cpu0_DTLB AVERAGE MISS LATENCY: 8.93889 cycles
cpu0_STLB TOTAL       ACCESS:    1628112  HIT:    1458117  MISS:     169995  iACCESS:     387923  iHIT:     326722  iMISS:      61201  dACCESS:    1240189  dHIT:    1131395  dMISS:     108794  itACCESS:          0  itHIT:          0  itMISS:          0  dtACCESS:          0  dtHIT:          0  dtMISS:          0
cpu0_STLB LOAD         ACCESS:    1628112  HIT:    1458117  MISS:     169995  iACCESS:     387923  iHIT:     326722  iMISS:      61201  dACCESS:    1240189  dHIT:    1131395  dMISS:     108794  itACCESS:          0  itHIT:          0  itMISS:          0  dtACCESS:          0  dtHIT:          0  dtMISS:          0
cpu0_STLB RFO          ACCESS:          0  HIT:          0  MISS:          0  iACCESS:          0  iHIT:          0  iMISS:          0  dACCESS:          0  dHIT:          0  dMISS:          0  itACCESS:          0  itHIT:          0  itMISS:          0  dtACCESS:          0  dtHIT:          0  dtMISS:          0
cpu0_STLB PREFETCH     ACCESS:          0  HIT:          0  MISS:          0  iACCESS:          0  iHIT:          0  iMISS:          0  dACCESS:          0  dHIT:          0  dMISS:          0  itACCESS:          0  itHIT:          0  itMISS:          0  dtACCESS:          0  dtHIT:          0  dtMISS:          0
cpu0_STLB WRITE        ACCESS:          0  HIT:          0  MISS:          0  iACCESS:          0  iHIT:          0  iMISS:          0  dACCESS:          0  dHIT:          0  dMISS:          0  itACCESS:          0  itHIT:          0  itMISS:          0  dtACCESS:          0  dtHIT:          0  dtMISS:          0
cpu0_STLB TRANSLATION  ACCESS:          0  HIT:          0  MISS:          0  iACCESS:          0  iHIT:          0  iMISS:          0  dACCESS:          0  dHIT:          0  dMISS:          0  itACCESS:          0  itHIT:          0  itMISS:          0  dtACCESS:          0  dtHIT:          0  dtMISS:          0
cpu0_STLB PREFETCH  REQUESTED:          0  ISSUED:          0  CROSSED:          0  USEFUL:          0  USELESS:          0
cpu0_STLB AVERAGE iMISS LATENCY: 13.2594 cycles
cpu0_STLB AVERAGE dMISS LATENCY: 47.801 cycles
cpu0_STLB AVERAGE itMISS LATENCY: 0 cycles
cpu0_STLB AVERAGE dtMISS LATENCY: 0 cycles
cpu0_STLB PAGE CROSSINGS (TLB HIT):         0 
cpu0_STLB PAGE CROSSINGS (TLB MISS):         0 
cpu0_STLB AVERAGE MISS LATENCY: 61.0604 cycles
cpu0_L1D TOTAL       ACCESS:   41427948  HIT:   37898133  MISS:    3529815  iACCESS:          0  iHIT:          0  iMISS:          0  dACCESS:   41194314  dHIT:   37877125  dMISS:    3317189  itACCESS:      66745  itHIT:       9379  itMISS:      57366  dtACCESS:     166889  dtHIT:      11629  dtMISS:     155260
cpu0_L1D LOAD         ACCESS:   18882026  HIT:   17376062  MISS:    1505964  iACCESS:          0  iHIT:          0  iMISS:          0  dACCESS:   18882026  dHIT:   17376062  dMISS:    1505964  itACCESS:          0  itHIT:          0  itMISS:          0  dtACCESS:          0  dtHIT:          0  dtMISS:          0
cpu0_L1D RFO          ACCESS:          0  HIT:          0  MISS:          0  iACCESS:          0  iHIT:          0  iMISS:          0  dACCESS:          0  dHIT:          0  dMISS:          0  itACCESS:          0  itHIT:          0  itMISS:          0  dtACCESS:          0  dtHIT:          0  dtMISS:          0
cpu0_L1D PREFETCH     ACCESS:   12116577  HIT:   10752166  MISS:    1364411  iACCESS:          0  iHIT:          0  iMISS:          0  dACCESS:   12116577  dHIT:   10752166  dMISS:    1364411  itACCESS:          0  itHIT:          0  itMISS:          0  dtACCESS:          0  dtHIT:          0  dtMISS:          0
cpu0_L1D WRITE        ACCESS:   10195711  HIT:    9748897  MISS:     446814  iACCESS:          0  iHIT:          0  iMISS:          0  dACCESS:   10195711  dHIT:    9748897  dMISS:     446814  itACCESS:          0  itHIT:          0  itMISS:          0  dtACCESS:          0  dtHIT:          0  dtMISS:          0
cpu0_L1D TRANSLATION  ACCESS:     233634  HIT:      21008  MISS:     212626  iACCESS:          0  iHIT:          0  iMISS:          0  dACCESS:          0  dHIT:          0  dMISS:          0  itACCESS:      66745  itHIT:       9379  itMISS:      57366  dtACCESS:     166889  dtHIT:      11629  dtMISS:     155260
cpu0_L1D PREFETCH  REQUESTED:   18882026  ISSUED:   16916042  CROSSED:          0  USEFUL:     305623  USELESS:     701647
cpu0_L1D AVERAGE iMISS LATENCY: 0 cycles
cpu0_L1D AVERAGE dMISS LATENCY: 34.8108 cycles
cpu0_L1D AVERAGE itMISS LATENCY: 0.48881 cycles
cpu0_L1D AVERAGE dtMISS LATENCY: 1.59897 cycles
cpu0_L1D PAGE CROSSINGS (TLB HIT):         0 
cpu0_L1D PAGE CROSSINGS (TLB MISS):         0 
cpu0_L1D AVERAGE MISS LATENCY: 36.8986 cycles
cpu0_L2C TOTAL       ACCESS:    6944004  HIT:    1209770  MISS:    5734234  iACCESS:    3279903  iHIT:     665991  iMISS:    2613912  dACCESS:    3462213  dHIT:     379563  dMISS:    3082650  itACCESS:      57366  itHIT:      48009  itMISS:       9357  dtACCESS:     144522  dtHIT:     116207  dtMISS:      28315
cpu0_L2C LOAD         ACCESS:    1722666  HIT:     136962  MISS:    1585704  iACCESS:     789617  iHIT:      95475  iMISS:     694142  dACCESS:     933049  dHIT:      41487  dMISS:     891562  itACCESS:          0  itHIT:          0  itMISS:          0  dtACCESS:          0  dtHIT:          0  dtMISS:          0
cpu0_L2C RFO          ACCESS:     157913  HIT:       9096  MISS:     148817  iACCESS:          0  iHIT:          0  iMISS:          0  dACCESS:     157913  dHIT:       9096  dMISS:     148817  itACCESS:          0  itHIT:          0  itMISS:          0  dtACCESS:          0  dtHIT:          0  dtMISS:          0
cpu0_L2C PREFETCH     ACCESS:    4575804  HIT:     839942  MISS:    3735862  iACCESS:    2490286  iHIT:     570516  iMISS:    1919770  dACCESS:    2085518  dHIT:     269426  dMISS:    1816092  itACCESS:          0  itHIT:          0  itMISS:          0  dtACCESS:          0  dtHIT:          0  dtMISS:          0
cpu0_L2C WRITE        ACCESS:     285733  HIT:      59554  MISS:     226179  iACCESS:          0  iHIT:          0  iMISS:          0  dACCESS:     285733  dHIT:      59554  dMISS:     226179  itACCESS:          0  itHIT:          0  itMISS:          0  dtACCESS:          0  dtHIT:          0  dtMISS:          0
cpu0_L2C TRANSLATION  ACCESS:     201888  HIT:     164216  MISS:      37672  iACCESS:          0  iHIT:          0  iMISS:          0  dACCESS:          0  dHIT:          0  dMISS:          0  itACCESS:      57366  itHIT:      48009  itMISS:       9357  dtACCESS:     144522  dtHIT:     116207  dtMISS:      28315
cpu0_L2C PREFETCH  REQUESTED:    1327985  ISSUED:    1327985  CROSSED:          0  USEFUL:     407583  USELESS:     381885
cpu0_L2C AVERAGE iMISS LATENCY: 14.5665 cycles
cpu0_L2C AVERAGE dMISS LATENCY: 24.5278 cycles
cpu0_L2C AVERAGE itMISS LATENCY: 0.209009 cycles
cpu0_L2C AVERAGE dtMISS LATENCY: 0.751216 cycles
cpu0_L2C PAGE CROSSINGS (TLB HIT):         0 
cpu0_L2C PAGE CROSSINGS (TLB MISS):         0 
cpu0_L2C AVERAGE MISS LATENCY: 40.0544 cycles
LLC TOTAL       ACCESS:    5658226  HIT:    4865910  MISS:     792316  iACCESS:    2559696  iHIT:    2325733  iMISS:     233963  dACCESS:    3060858  dHIT:    2529680  dMISS:     531178  itACCESS:       9357  itHIT:       3426  itMISS:       5931  dtACCESS:      28315  dtHIT:       7071  dtMISS:      21244
LLC LOAD         ACCESS:    1583981  HIT:    1397357  MISS:     186624  iACCESS:     692770  iHIT:     643667  iMISS:      49103  dACCESS:     891211  dHIT:     753690  dMISS:     137521  itACCESS:          0  itHIT:          0  itMISS:          0  dtACCESS:          0  dtHIT:          0  dtMISS:          0
LLC RFO          ACCESS:     148809  HIT:     109807  MISS:      39002  iACCESS:          0  iHIT:          0  iMISS:          0  dACCESS:     148809  dHIT:     109807  dMISS:      39002  itACCESS:          0  itHIT:          0  itMISS:          0  dtACCESS:          0  dtHIT:          0  dtMISS:          0
LLC PREFETCH     ACCESS:    3628820  HIT:    3089305  MISS:     539515  iACCESS:    1866926  iHIT:    1682066  iMISS:     184860  dACCESS:    1761894  dHIT:    1407239  dMISS:     354655  itACCESS:          0  itHIT:          0  itMISS:          0  dtACCESS:          0  dtHIT:          0  dtMISS:          0
LLC WRITE        ACCESS:     258944  HIT:     258944  MISS:          0  iACCESS:          0  iHIT:          0  iMISS:          0  dACCESS:     258944  dHIT:     258944  dMISS:          0  itACCESS:          0  itHIT:          0  itMISS:          0  dtACCESS:          0  dtHIT:          0  dtMISS:          0
LLC TRANSLATION  ACCESS:      37672  HIT:      10497  MISS:      27175  iACCESS:          0  iHIT:          0  iMISS:          0  dACCESS:          0  dHIT:          0  dMISS:          0  itACCESS:       9357  itHIT:       3426  itMISS:       5931  dtACCESS:      28315  dtHIT:       7071  dtMISS:      21244
LLC PREFETCH  REQUESTED:          0  ISSUED:          0  CROSSED:          0  USEFUL:          0  USELESS:          0
LLC AVERAGE iMISS LATENCY: 43.092 cycles
LLC AVERAGE dMISS LATENCY: 109.194 cycles
LLC AVERAGE itMISS LATENCY: 1.28121 cycles
LLC AVERAGE dtMISS LATENCY: 4.73406 cycles
LLC PAGE CROSSINGS (TLB HIT):         0 
LLC PAGE CROSSINGS (TLB MISS):         0 
LLC AVERAGE MISS LATENCY: 158.301 cycles

PageTableWalker TOTAL       ACCESS:      85550  
PageTableWalker AVERAGE LATENCY: 4.25249 cycles
PageTableWalker TOTAL LATENCY: 363800 cycles

DRAM Statistics
Channel 0
 RQ ROW_BUFFER_HIT:     221763
  ROW_BUFFER_MISS:     570494
 AVG DBUS CONGESTED CYCLE:    3.62251
 WQ ROW_BUFFER_HIT:      21333
  ROW_BUFFER_MISS:      30396  FULL:          0

