last_page:0x200000000000000
VMEM_RES_CAP:0x100000
PAGE_SIZE:4096
LOG2_PAGE_SIZE:12
LOG2_PAGE_TABLE_SIZE:9
page_table_levels:5
WARNING: physical memory size is smaller than virtual memory size
FDiP enabled with aggresivity 16

*** ChampSim Multicore Out-of-Order Simulator ***

Warmup Instructions: 50000000
Simulation Instructions: 100000000
Number of CPUs: 1
Small page size: 4096
Large page size: 2097152

CPU 0 Bimodal branch predictor
Basic BTB sets: 1024 ways: 8 indirect buffer size: 4096 RAS size: 64
Instruction page size distrubution: 0
Loading instruction page size distribution from /home/bsc/bsc018186/scratch/itp_asplos25_AE/dump/srv45_ap.pdst
Data page size distrubution: 0
Loading data page size distribution from /home/bsc/bsc018186/scratch/itp_asplos25_AE/dump/srv45_ap.pdst
cpu0_L2C IP-based stride prefetcher
cpu0_L1D next line prefetcher
cpu0_STLB using iTP with max lru@8
cpu0_STLB using iTP with instr@0 and data@2
Init sat counter with 3 bits (max:50).
cpu0_L1I next line prefetcher
Off-chip DRAM Size: 4 GiB Channels: 1 Width: 64-bit Data Rate: 3200 MT/s
Heartbeat CPU 0 instructions: 10000002 cycles: 2500251 heartbeat IPC: 3.9996 cumulative IPC: 3.9996 (Simulation time: 0 hr 0 min 37 sec) 
Heartbeat CPU 0 instructions: 20000002 cycles: 5000251 heartbeat IPC: 4 cumulative IPC: 3.9998 (Simulation time: 0 hr 1 min 16 sec) 
Heartbeat CPU 0 instructions: 30000000 cycles: 7500429 heartbeat IPC: 3.99972 cumulative IPC: 3.99978 (Simulation time: 0 hr 1 min 55 sec) 
Heartbeat CPU 0 instructions: 40000001 cycles: 10000430 heartbeat IPC: 4 cumulative IPC: 3.99983 (Simulation time: 0 hr 2 min 35 sec) 
Heartbeat CPU 0 instructions: 50000001 cycles: 12500471 heartbeat IPC: 3.99994 cumulative IPC: 3.99985 (Simulation time: 0 hr 3 min 15 sec) 
Warmup finished CPU 0 instructions: 50000001 cycles: 12500472 cumulative IPC: 3.99985 (Simulation time: 0 hr 3 min 15 sec) 

Warmup complete CPU 0 instructions: 50000001 cycles: 12500472 (Simulation time: 0 hr 3 min 15 sec) 

Heartbeat CPU 0 instructions: 60000000 cycles: 28553971 heartbeat IPC: 0.622918 cumulative IPC: 0.622918 (Simulation time: 0 hr 4 min 20 sec) 
Heartbeat CPU 0 instructions: 70000004 cycles: 44471714 heartbeat IPC: 0.628231 cumulative IPC: 0.625563 (Simulation time: 0 hr 5 min 25 sec) 
Heartbeat CPU 0 instructions: 80000001 cycles: 60599012 heartbeat IPC: 0.620067 cumulative IPC: 0.62372 (Simulation time: 0 hr 6 min 31 sec) 
Heartbeat CPU 0 instructions: 90000004 cycles: 75631430 heartbeat IPC: 0.66523 cumulative IPC: 0.633604 (Simulation time: 0 hr 7 min 35 sec) 
Heartbeat CPU 0 instructions: 100000000 cycles: 91097826 heartbeat IPC: 0.646563 cumulative IPC: 0.636154 (Simulation time: 0 hr 8 min 39 sec) 
*** Reached end of trace: /gpfs/projects/bsc18/MN4/bsc18/romol/ChampSim/traces/qualcomm_srv/srv45_ap.champsimtrace.xz
Heartbeat CPU 0 instructions: 110000001 cycles: 106656481 heartbeat IPC: 0.64273 cumulative IPC: 0.637241 (Simulation time: 0 hr 9 min 44 sec) 
Heartbeat CPU 0 instructions: 120000001 cycles: 121063488 heartbeat IPC: 0.694107 cumulative IPC: 0.644787 (Simulation time: 0 hr 10 min 48 sec) 
Heartbeat CPU 0 instructions: 130000000 cycles: 137585443 heartbeat IPC: 0.605256 cumulative IPC: 0.639566 (Simulation time: 0 hr 11 min 55 sec) 
Heartbeat CPU 0 instructions: 140000003 cycles: 151537549 heartbeat IPC: 0.716738 cumulative IPC: 0.64731 (Simulation time: 0 hr 12 min 57 sec) 
Heartbeat CPU 0 instructions: 150000001 cycles: 166966603 heartbeat IPC: 0.648128 cumulative IPC: 0.647392 (Simulation time: 0 hr 14 min 2 sec) 
Simulation finished CPU 0 instructions: 100000000 cycles: 154466132 cumulative IPC: 0.647392 (Simulation time: 0 hr 14 min 2 sec) 

Simulation complete CPU 0 instructions: 100000000 cycles: 154466132 (Simulation time: 0 hr 14 min 2 sec) 


ChampSim completed all CPUs

Saving instructions large page distribution to /home/bsc/bsc018186/scratch/itp_asplos25_AE/dump/srv45_ap.pdst...
Saving data large page distribution to /home/bsc/bsc018186/scratch/itp_asplos25_AE/dump/srv45_ap.pdst...
=== Simulation ===
CPU 0 runs /gpfs/projects/bsc18/MN4/bsc18/romol/ChampSim/traces/qualcomm_srv/srv45_ap.champsimtrace.xz

Region of Interest Statistics

CPU 0 cumulative IPC: 0.647392 instructions: 100000000 cycles: 154466132
CPU 0 Branch Prediction Accuracy: 82.716% MPKI: 30.9311 Average ROB Occupancy at Mispredict: 12.6686
Branch type MPKI
BRANCH_DIRECT_JUMP: 1.06716
BRANCH_INDIRECT: 15.7697
BRANCH_CONDITIONAL: 10.2538
BRANCH_DIRECT_CALL: 1.9307
BRANCH_INDIRECT_CALL: 0.526691
BRANCH_RETURN: 1.38308

Instructions large pages: 0
Instructions small pages: 1017
Large page distribution for instructions: 0%

Data large pages: 0
Data small pages: 9711
Large page distribution for data: 0%

cpu0_L1I TOTAL       ACCESS:   35123761  HIT:   27293715  MISS:    7830046  iACCESS:   35123761  iHIT:   27293715  iMISS:    7830046  dACCESS:          0  dHIT:          0  dMISS:          0  itACCESS:          0  itHIT:          0  itMISS:          0  dtACCESS:          0  dtHIT:          0  dtMISS:          0
cpu0_L1I LOAD         ACCESS:   10307884  HIT:    8112296  MISS:    2195588  iACCESS:   10307884  iHIT:    8112296  iMISS:    2195588  dACCESS:          0  dHIT:          0  dMISS:          0  itACCESS:          0  itHIT:          0  itMISS:          0  dtACCESS:          0  dtHIT:          0  dtMISS:          0
cpu0_L1I RFO          ACCESS:          0  HIT:          0  MISS:          0  iACCESS:          0  iHIT:          0  iMISS:          0  dACCESS:          0  dHIT:          0  dMISS:          0  itACCESS:          0  itHIT:          0  itMISS:          0  dtACCESS:          0  dtHIT:          0  dtMISS:          0
cpu0_L1I PREFETCH     ACCESS:   24815877  HIT:   19181419  MISS:    5634458  iACCESS:   24815877  iHIT:   19181419  iMISS:    5634458  dACCESS:          0  dHIT:          0  dMISS:          0  itACCESS:          0  itHIT:          0  itMISS:          0  dtACCESS:          0  dtHIT:          0  dtMISS:          0
cpu0_L1I WRITE        ACCESS:          0  HIT:          0  MISS:          0  iACCESS:          0  iHIT:          0  iMISS:          0  dACCESS:          0  dHIT:          0  dMISS:          0  itACCESS:          0  itHIT:          0  itMISS:          0  dtACCESS:          0  dtHIT:          0  dtMISS:          0
cpu0_L1I TRANSLATION  ACCESS:          0  HIT:          0  MISS:          0  iACCESS:          0  iHIT:          0  iMISS:          0  dACCESS:          0  dHIT:          0  dMISS:          0  itACCESS:          0  itHIT:          0  itMISS:          0  dtACCESS:          0  dtHIT:          0  dtMISS:          0
cpu0_L1I PREFETCH  REQUESTED:   27361754  ISSUED:   27361752  CROSSED:          0  USEFUL:    1936703  USELESS:     629002
cpu0_L1I AVERAGE iMISS LATENCY: 13.3173 cycles
cpu0_L1I AVERAGE dMISS LATENCY: 0 cycles
cpu0_L1I AVERAGE itMISS LATENCY: 0 cycles
cpu0_L1I AVERAGE dtMISS LATENCY: 0 cycles
cpu0_L1I PAGE CROSSINGS (TLB HIT):         0 
cpu0_L1I PAGE CROSSINGS (TLB MISS):         0 
cpu0_L1I AVERAGE MISS LATENCY: 13.3173 cycles
cpu0_ITLB TOTAL       ACCESS:   29341087  HIT:   27403711  MISS:    1937376  iACCESS:   29341087  iHIT:   27403711  iMISS:    1937376  dACCESS:          0  dHIT:          0  dMISS:          0  itACCESS:          0  itHIT:          0  itMISS:          0  dtACCESS:          0  dtHIT:          0  dtMISS:          0
cpu0_ITLB LOAD         ACCESS:   29341087  HIT:   27403711  MISS:    1937376  iACCESS:   29341087  iHIT:   27403711  iMISS:    1937376  dACCESS:          0  dHIT:          0  dMISS:          0  itACCESS:          0  itHIT:          0  itMISS:          0  dtACCESS:          0  dtHIT:          0  dtMISS:          0
cpu0_ITLB RFO          ACCESS:          0  HIT:          0  MISS:          0  iACCESS:          0  iHIT:          0  iMISS:          0  dACCESS:          0  dHIT:          0  dMISS:          0  itACCESS:          0  itHIT:          0  itMISS:          0  dtACCESS:          0  dtHIT:          0  dtMISS:          0
cpu0_ITLB PREFETCH     ACCESS:          0  HIT:          0  MISS:          0  iACCESS:          0  iHIT:          0  iMISS:          0  dACCESS:          0  dHIT:          0  dMISS:          0  itACCESS:          0  itHIT:          0  itMISS:          0  dtACCESS:          0  dtHIT:          0  dtMISS:          0
cpu0_ITLB WRITE        ACCESS:          0  HIT:          0  MISS:          0  iACCESS:          0  iHIT:          0  iMISS:          0  dACCESS:          0  dHIT:          0  dMISS:          0  itACCESS:          0  itHIT:          0  itMISS:          0  dtACCESS:          0  dtHIT:          0  dtMISS:          0
cpu0_ITLB TRANSLATION  ACCESS:          0  HIT:          0  MISS:          0  iACCESS:          0  iHIT:          0  iMISS:          0  dACCESS:          0  dHIT:          0  dMISS:          0  itACCESS:          0  itHIT:          0  itMISS:          0  dtACCESS:          0  dtHIT:          0  dtMISS:          0
cpu0_ITLB PREFETCH  REQUESTED:          0  ISSUED:          0  CROSSED:          0  USEFUL:     317073  USELESS:      64001
cpu0_ITLB AVERAGE iMISS LATENCY: 2.30432 cycles
cpu0_ITLB AVERAGE dMISS LATENCY: 0 cycles
cpu0_ITLB AVERAGE itMISS LATENCY: 0 cycles
cpu0_ITLB AVERAGE dtMISS LATENCY: 0 cycles
cpu0_ITLB PAGE CROSSINGS (TLB HIT):         0 
cpu0_ITLB PAGE CROSSINGS (TLB MISS):         0 
cpu0_ITLB AVERAGE MISS LATENCY: 2.30432 cycles
cpu0_DTLB TOTAL       ACCESS:   27735721  HIT:   25629936  MISS:    2105785  iACCESS:          0  iHIT:          0  iMISS:          0  dACCESS:   27735721  dHIT:   25629936  dMISS:    2105785  itACCESS:          0  itHIT:          0  itMISS:          0  dtACCESS:          0  dtHIT:          0  dtMISS:          0
cpu0_DTLB LOAD         ACCESS:   27735721  HIT:   25629936  MISS:    2105785  iACCESS:          0  iHIT:          0  iMISS:          0  dACCESS:   27735721  dHIT:   25629936  dMISS:    2105785  itACCESS:          0  itHIT:          0  itMISS:          0  dtACCESS:          0  dtHIT:          0  dtMISS:          0
cpu0_DTLB RFO          ACCESS:          0  HIT:          0  MISS:          0  iACCESS:          0  iHIT:          0  iMISS:          0  dACCESS:          0  dHIT:          0  dMISS:          0  itACCESS:          0  itHIT:          0  itMISS:          0  dtACCESS:          0  dtHIT:          0  dtMISS:          0
cpu0_DTLB PREFETCH     ACCESS:          0  HIT:          0  MISS:          0  iACCESS:          0  iHIT:          0  iMISS:          0  dACCESS:          0  dHIT:          0  dMISS:          0  itACCESS:          0  itHIT:          0  itMISS:          0  dtACCESS:          0  dtHIT:          0  dtMISS:          0
cpu0_DTLB WRITE        ACCESS:          0  HIT:          0  MISS:          0  iACCESS:          0  iHIT:          0  iMISS:          0  dACCESS:          0  dHIT:          0  dMISS:          0  itACCESS:          0  itHIT:          0  itMISS:          0  dtACCESS:          0  dtHIT:          0  dtMISS:          0
cpu0_DTLB TRANSLATION  ACCESS:          0  HIT:          0  MISS:          0  iACCESS:          0  iHIT:          0  iMISS:          0  dACCESS:          0  dHIT:          0  dMISS:          0  itACCESS:          0  itHIT:          0  itMISS:          0  dtACCESS:          0  dtHIT:          0  dtMISS:          0
cpu0_DTLB PREFETCH  REQUESTED:          0  ISSUED:          0  CROSSED:          0  USEFUL:          0  USELESS:          0
cpu0_DTLB AVERAGE iMISS LATENCY: 0 cycles
cpu0_DTLB AVERAGE dMISS LATENCY: 16.6717 cycles
cpu0_DTLB AVERAGE itMISS LATENCY: 0 cycles
cpu0_DTLB AVERAGE dtMISS LATENCY: 0 cycles
cpu0_DTLB PAGE CROSSINGS (TLB HIT):         0 
cpu0_DTLB PAGE CROSSINGS (TLB MISS):         0 
cpu0_DTLB AVERAGE MISS LATENCY: 16.6717 cycles
cpu0_STLB TOTAL       ACCESS:    1625394  HIT:    1476183  MISS:     149211  iACCESS:     381073  iHIT:     371027  iMISS:      10046  dACCESS:    1244321  dHIT:    1105156  dMISS:     139165  itACCESS:          0  itHIT:          0  itMISS:          0  dtACCESS:          0  dtHIT:          0  dtMISS:          0
cpu0_STLB LOAD         ACCESS:    1625394  HIT:    1476183  MISS:     149211  iACCESS:     381073  iHIT:     371027  iMISS:      10046  dACCESS:    1244321  dHIT:    1105156  dMISS:     139165  itACCESS:          0  itHIT:          0  itMISS:          0  dtACCESS:          0  dtHIT:          0  dtMISS:          0
cpu0_STLB RFO          ACCESS:          0  HIT:          0  MISS:          0  iACCESS:          0  iHIT:          0  iMISS:          0  dACCESS:          0  dHIT:          0  dMISS:          0  itACCESS:          0  itHIT:          0  itMISS:          0  dtACCESS:          0  dtHIT:          0  dtMISS:          0
cpu0_STLB PREFETCH     ACCESS:          0  HIT:          0  MISS:          0  iACCESS:          0  iHIT:          0  iMISS:          0  dACCESS:          0  dHIT:          0  dMISS:          0  itACCESS:          0  itHIT:          0  itMISS:          0  dtACCESS:          0  dtHIT:          0  dtMISS:          0
cpu0_STLB WRITE        ACCESS:          0  HIT:          0  MISS:          0  iACCESS:          0  iHIT:          0  iMISS:          0  dACCESS:          0  dHIT:          0  dMISS:          0  itACCESS:          0  itHIT:          0  itMISS:          0  dtACCESS:          0  dtHIT:          0  dtMISS:          0
cpu0_STLB TRANSLATION  ACCESS:          0  HIT:          0  MISS:          0  iACCESS:          0  iHIT:          0  iMISS:          0  dACCESS:          0  dHIT:          0  dMISS:          0  itACCESS:          0  itHIT:          0  itMISS:          0  dtACCESS:          0  dtHIT:          0  dtMISS:          0
cpu0_STLB PREFETCH  REQUESTED:          0  ISSUED:          0  CROSSED:          0  USEFUL:          0  USELESS:          0
cpu0_STLB AVERAGE iMISS LATENCY: 10.0902 cycles
cpu0_STLB AVERAGE dMISS LATENCY: 168.616 cycles
cpu0_STLB AVERAGE itMISS LATENCY: 0 cycles
cpu0_STLB AVERAGE dtMISS LATENCY: 0 cycles
cpu0_STLB PAGE CROSSINGS (TLB HIT):         0 
cpu0_STLB PAGE CROSSINGS (TLB MISS):         0 
cpu0_STLB AVERAGE MISS LATENCY: 178.707 cycles
cpu0_L1D TOTAL       ACCESS:   41512946  HIT:   38077960  MISS:    3434986  iACCESS:          0  iHIT:          0  iMISS:          0  dACCESS:   41295716  dHIT:   38064382  dMISS:    3231334  itACCESS:      11678  itHIT:        931  itMISS:      10747  dtACCESS:     205552  dtHIT:      12647  dtMISS:     192905
cpu0_L1D LOAD         ACCESS:   18929881  HIT:   17453650  MISS:    1476231  iACCESS:          0  iHIT:          0  iMISS:          0  dACCESS:   18929881  dHIT:   17453650  dMISS:    1476231  itACCESS:          0  itHIT:          0  itMISS:          0  dtACCESS:          0  dtHIT:          0  dtMISS:          0
cpu0_L1D RFO          ACCESS:          0  HIT:          0  MISS:          0  iACCESS:          0  iHIT:          0  iMISS:          0  dACCESS:          0  dHIT:          0  dMISS:          0  itACCESS:          0  itHIT:          0  itMISS:          0  dtACCESS:          0  dtHIT:          0  dtMISS:          0
cpu0_L1D PREFETCH     ACCESS:   12186478  HIT:   10863582  MISS:    1322896  iACCESS:          0  iHIT:          0  iMISS:          0  dACCESS:   12186478  dHIT:   10863582  dMISS:    1322896  itACCESS:          0  itHIT:          0  itMISS:          0  dtACCESS:          0  dtHIT:          0  dtMISS:          0
cpu0_L1D WRITE        ACCESS:   10179357  HIT:    9747150  MISS:     432207  iACCESS:          0  iHIT:          0  iMISS:          0  dACCESS:   10179357  dHIT:    9747150  dMISS:     432207  itACCESS:          0  itHIT:          0  itMISS:          0  dtACCESS:          0  dtHIT:          0  dtMISS:          0
cpu0_L1D TRANSLATION  ACCESS:     217230  HIT:      13578  MISS:     203652  iACCESS:          0  iHIT:          0  iMISS:          0  dACCESS:          0  dHIT:          0  dMISS:          0  itACCESS:      11678  itHIT:        931  itMISS:      10747  dtACCESS:     205552  dtHIT:      12647  dtMISS:     192905
cpu0_L1D PREFETCH  REQUESTED:   18929881  ISSUED:   17039290  CROSSED:          0  USEFUL:     303572  USELESS:     702143
cpu0_L1D AVERAGE iMISS LATENCY: 0 cycles
cpu0_L1D AVERAGE dMISS LATENCY: 34.0265 cycles
cpu0_L1D AVERAGE itMISS LATENCY: 0.404412 cycles
cpu0_L1D AVERAGE dtMISS LATENCY: 6.51176 cycles
cpu0_L1D PAGE CROSSINGS (TLB HIT):         0 
cpu0_L1D PAGE CROSSINGS (TLB MISS):         0 
cpu0_L1D AVERAGE MISS LATENCY: 40.9426 cycles
cpu0_L2C TOTAL       ACCESS:    6997088  HIT:    4035847  MISS:    2961241  iACCESS:    3308657  iHIT:    2199108  iMISS:    1109549  dACCESS:    3493207  dHIT:    1802079  dMISS:    1691128  itACCESS:      10747  itHIT:       2012  itMISS:       8735  dtACCESS:     184477  dtHIT:      32648  dtMISS:     151829
cpu0_L2C LOAD         ACCESS:    1712349  HIT:    1025915  MISS:     686434  iACCESS:     782709  iHIT:     548150  iMISS:     234559  dACCESS:     929640  dHIT:     477765  dMISS:     451875  itACCESS:          0  itHIT:          0  itMISS:          0  dtACCESS:          0  dtHIT:          0  dtMISS:          0
cpu0_L2C RFO          ACCESS:     158135  HIT:      71531  MISS:      86604  iACCESS:          0  iHIT:          0  iMISS:          0  dACCESS:     158135  dHIT:      71531  dMISS:      86604  itACCESS:          0  itHIT:          0  itMISS:          0  dtACCESS:          0  dtHIT:          0  dtMISS:          0
cpu0_L2C PREFETCH     ACCESS:    4651498  HIT:    2624784  MISS:    2026714  iACCESS:    2525948  iHIT:    1650958  iMISS:     874990  dACCESS:    2125550  dHIT:     973826  dMISS:    1151724  itACCESS:          0  itHIT:          0  itMISS:          0  dtACCESS:          0  dtHIT:          0  dtMISS:          0
cpu0_L2C WRITE        ACCESS:     279882  HIT:     278957  MISS:        925  iACCESS:          0  iHIT:          0  iMISS:          0  dACCESS:     279882  dHIT:     278957  dMISS:        925  itACCESS:          0  itHIT:          0  itMISS:          0  dtACCESS:          0  dtHIT:          0  dtMISS:          0
cpu0_L2C TRANSLATION  ACCESS:     195224  HIT:      34660  MISS:     160564  iACCESS:          0  iHIT:          0  iMISS:          0  dACCESS:          0  dHIT:          0  dMISS:          0  itACCESS:      10747  itHIT:       2012  itMISS:       8735  dtACCESS:     184477  dtHIT:      32648  dtMISS:     151829
cpu0_L2C PREFETCH  REQUESTED:    1377561  ISSUED:    1377561  CROSSED:          0  USEFUL:     332465  USELESS:     236732
cpu0_L2C AVERAGE iMISS LATENCY: 25.1487 cycles
cpu0_L2C AVERAGE dMISS LATENCY: 47.3065 cycles
cpu0_L2C AVERAGE itMISS LATENCY: 0.433411 cycles
cpu0_L2C AVERAGE dtMISS LATENCY: 6.93698 cycles
cpu0_L2C PAGE CROSSINGS (TLB HIT):         0 
cpu0_L2C PAGE CROSSINGS (TLB MISS):         0 
cpu0_L2C AVERAGE MISS LATENCY: 79.8255 cycles
LLC TOTAL       ACCESS:    2987550  HIT:    1846545  MISS:    1141005  iACCESS:    1055633  iHIT:     690099  iMISS:     365534  dACCESS:    1771353  dHIT:    1100086  dMISS:     671267  itACCESS:       8735  itHIT:       2341  itMISS:       6394  dtACCESS:     151829  dtHIT:      54019  dtMISS:      97810
LLC LOAD         ACCESS:     684964  HIT:     439107  MISS:     245857  iACCESS:     233487  iHIT:     156492  iMISS:      76995  dACCESS:     451477  dHIT:     282615  dMISS:     168862  itACCESS:          0  itHIT:          0  itMISS:          0  dtACCESS:          0  dtHIT:          0  dtMISS:          0
LLC RFO          ACCESS:      86603  HIT:      44481  MISS:      42122  iACCESS:          0  iHIT:          0  iMISS:          0  dACCESS:      86603  dHIT:      44481  dMISS:      42122  itACCESS:          0  itHIT:          0  itMISS:          0  dtACCESS:          0  dtHIT:          0  dtMISS:          0
LLC PREFETCH     ACCESS:    1919214  HIT:    1176516  MISS:     742698  iACCESS:     822146  iHIT:     533607  iMISS:     288539  dACCESS:    1097068  dHIT:     642909  dMISS:     454159  itACCESS:          0  itHIT:          0  itMISS:          0  dtACCESS:          0  dtHIT:          0  dtMISS:          0
LLC WRITE        ACCESS:     136205  HIT:     130081  MISS:       6124  iACCESS:          0  iHIT:          0  iMISS:          0  dACCESS:     136205  dHIT:     130081  dMISS:       6124  itACCESS:          0  itHIT:          0  itMISS:          0  dtACCESS:          0  dtHIT:          0  dtMISS:          0
LLC TRANSLATION  ACCESS:     160564  HIT:      56360  MISS:     104204  iACCESS:          0  iHIT:          0  iMISS:          0  dACCESS:          0  dHIT:          0  dMISS:          0  itACCESS:       8735  itHIT:       2341  itMISS:       6394  dtACCESS:     151829  dtHIT:      54019  dtMISS:      97810
LLC PREFETCH  REQUESTED:          0  ISSUED:          0  CROSSED:          0  USEFUL:          0  USELESS:          0
LLC AVERAGE iMISS LATENCY: 47.2958 cycles
LLC AVERAGE dMISS LATENCY: 95.0551 cycles
LLC AVERAGE itMISS LATENCY: 0.974306 cycles
LLC AVERAGE dtMISS LATENCY: 15.3971 cycles
LLC PAGE CROSSINGS (TLB HIT):         0 
LLC PAGE CROSSINGS (TLB MISS):         0 
LLC AVERAGE MISS LATENCY: 158.723 cycles

PageTableWalker TOTAL       ACCESS:      73676  
PageTableWalker AVERAGE LATENCY: 5.70426 cycles
PageTableWalker TOTAL LATENCY: 420267 cycles

DRAM Statistics
Channel 0
 RQ ROW_BUFFER_HIT:     305146
  ROW_BUFFER_MISS:     829674
 AVG DBUS CONGESTED CYCLE:    3.61985
 WQ ROW_BUFFER_HIT:      21741
  ROW_BUFFER_MISS:      20996  FULL:          0

