last_page:0x200000000000000
VMEM_RES_CAP:0x100000
PAGE_SIZE:4096
LOG2_PAGE_SIZE:12
LOG2_PAGE_TABLE_SIZE:9
page_table_levels:5
WARNING: physical memory size is smaller than virtual memory size
FDiP enabled with aggresivity 16

*** ChampSim Multicore Out-of-Order Simulator ***

Warmup Instructions: 50000000
Simulation Instructions: 100000000
Number of CPUs: 1
Small page size: 4096
Large page size: 2097152

CPU 0 Bimodal branch predictor
Basic BTB sets: 1024 ways: 8 indirect buffer size: 4096 RAS size: 64
Instruction page size distrubution: 0
Loading instruction page size distribution from /home/bsc/bsc018186/scratch/itp_asplos25_AE/dump/srv442_ap.pdst
Data page size distrubution: 0
Loading data page size distribution from /home/bsc/bsc018186/scratch/itp_asplos25_AE/dump/srv442_ap.pdst
cpu0_L2C IP-based stride prefetcher
cpu0_L2C is using PTP replacement policy:
	TLB_STRESS_THRESHOLD:0
	PTE_EVICTION_RATIO:0
cpu0_L1D next line prefetcher
cpu0_L1I next line prefetcher
Off-chip DRAM Size: 4 GiB Channels: 1 Width: 64-bit Data Rate: 3200 MT/s
Heartbeat CPU 0 instructions: 10000000 cycles: 2500172 heartbeat IPC: 3.99973 cumulative IPC: 3.99973 (Simulation time: 0 hr 0 min 39 sec) 
Heartbeat CPU 0 instructions: 20000003 cycles: 5000225 heartbeat IPC: 3.99992 cumulative IPC: 3.99983 (Simulation time: 0 hr 1 min 19 sec) 
Heartbeat CPU 0 instructions: 30000003 cycles: 7500282 heartbeat IPC: 3.99991 cumulative IPC: 3.99986 (Simulation time: 0 hr 2 min 0 sec) 
Heartbeat CPU 0 instructions: 40000002 cycles: 10000360 heartbeat IPC: 3.99988 cumulative IPC: 3.99986 (Simulation time: 0 hr 2 min 41 sec) 
Heartbeat CPU 0 instructions: 50000002 cycles: 12500375 heartbeat IPC: 3.99998 cumulative IPC: 3.99989 (Simulation time: 0 hr 3 min 23 sec) 
Warmup finished CPU 0 instructions: 50000002 cycles: 12500376 cumulative IPC: 3.99988 (Simulation time: 0 hr 3 min 23 sec) 

Warmup complete CPU 0 instructions: 50000002 cycles: 12500376 (Simulation time: 0 hr 3 min 23 sec) 

Heartbeat CPU 0 instructions: 60000002 cycles: 31674813 heartbeat IPC: 0.521528 cumulative IPC: 0.521528 (Simulation time: 0 hr 4 min 33 sec) 
Heartbeat CPU 0 instructions: 70000004 cycles: 51102808 heartbeat IPC: 0.514722 cumulative IPC: 0.518103 (Simulation time: 0 hr 5 min 45 sec) 
Heartbeat CPU 0 instructions: 80000001 cycles: 70429664 heartbeat IPC: 0.517415 cumulative IPC: 0.517873 (Simulation time: 0 hr 6 min 56 sec) 
Heartbeat CPU 0 instructions: 90000000 cycles: 89511749 heartbeat IPC: 0.524052 cumulative IPC: 0.519404 (Simulation time: 0 hr 8 min 6 sec) 
Heartbeat CPU 0 instructions: 100000001 cycles: 108898708 heartbeat IPC: 0.515811 cumulative IPC: 0.518682 (Simulation time: 0 hr 9 min 17 sec) 
*** Reached end of trace: /gpfs/projects/bsc18/MN4/bsc18/romol/ChampSim/traces/qualcomm_srv/srv442_ap.champsimtrace.xz
Heartbeat CPU 0 instructions: 110000001 cycles: 128592634 heartbeat IPC: 0.507771 cumulative IPC: 0.516831 (Simulation time: 0 hr 10 min 29 sec) 
Heartbeat CPU 0 instructions: 120000004 cycles: 148897507 heartbeat IPC: 0.492493 cumulative IPC: 0.513208 (Simulation time: 0 hr 11 min 41 sec) 
Heartbeat CPU 0 instructions: 130000004 cycles: 169631663 heartbeat IPC: 0.482296 cumulative IPC: 0.509129 (Simulation time: 0 hr 12 min 54 sec) 
Heartbeat CPU 0 instructions: 140000000 cycles: 191133524 heartbeat IPC: 0.465076 cumulative IPC: 0.503826 (Simulation time: 0 hr 14 min 9 sec) 
Heartbeat CPU 0 instructions: 150000000 cycles: 210980993 heartbeat IPC: 0.503843 cumulative IPC: 0.503828 (Simulation time: 0 hr 15 min 21 sec) 
Simulation finished CPU 0 instructions: 100000000 cycles: 198480619 cumulative IPC: 0.503828 (Simulation time: 0 hr 15 min 21 sec) 

Simulation complete CPU 0 instructions: 100000000 cycles: 198480619 (Simulation time: 0 hr 15 min 21 sec) 


ChampSim completed all CPUs

Saving instructions large page distribution to /home/bsc/bsc018186/scratch/itp_asplos25_AE/dump/srv442_ap.pdst...
Saving data large page distribution to /home/bsc/bsc018186/scratch/itp_asplos25_AE/dump/srv442_ap.pdst...
=== Simulation ===
CPU 0 runs /gpfs/projects/bsc18/MN4/bsc18/romol/ChampSim/traces/qualcomm_srv/srv442_ap.champsimtrace.xz

Region of Interest Statistics

CPU 0 cumulative IPC: 0.503828 instructions: 100000000 cycles: 198480619
CPU 0 Branch Prediction Accuracy: 79.7214% MPKI: 36.6341 Average ROB Occupancy at Mispredict: 10.3679
Branch type MPKI
BRANCH_DIRECT_JUMP: 1.39276
BRANCH_INDIRECT: 18.3231
BRANCH_CONDITIONAL: 11.8127
BRANCH_DIRECT_CALL: 2.62396
BRANCH_INDIRECT_CALL: 0.679551
BRANCH_RETURN: 1.80209

Instructions large pages: 0
Instructions small pages: 1142
Large page distribution for instructions: 0%

Data large pages: 0
Data small pages: 5076
Large page distribution for data: 0%

cpu0_L1I TOTAL       ACCESS:   36157401  HIT:   27856796  MISS:    8300605  iACCESS:   36157401  iHIT:   27856796  iMISS:    8300605  dACCESS:          0  dHIT:          0  dMISS:          0  itACCESS:          0  itHIT:          0  itMISS:          0  dtACCESS:          0  dtHIT:          0  dtMISS:          0
cpu0_L1I LOAD         ACCESS:   10524247  HIT:    8249797  MISS:    2274450  iACCESS:   10524247  iHIT:    8249797  iMISS:    2274450  dACCESS:          0  dHIT:          0  dMISS:          0  itACCESS:          0  itHIT:          0  itMISS:          0  dtACCESS:          0  dtHIT:          0  dtMISS:          0
cpu0_L1I RFO          ACCESS:          0  HIT:          0  MISS:          0  iACCESS:          0  iHIT:          0  iMISS:          0  dACCESS:          0  dHIT:          0  dMISS:          0  itACCESS:          0  itHIT:          0  itMISS:          0  dtACCESS:          0  dtHIT:          0  dtMISS:          0
cpu0_L1I PREFETCH     ACCESS:   25633154  HIT:   19606999  MISS:    6026155  iACCESS:   25633154  iHIT:   19606999  iMISS:    6026155  dACCESS:          0  dHIT:          0  dMISS:          0  itACCESS:          0  itHIT:          0  itMISS:          0  dtACCESS:          0  dtHIT:          0  dtMISS:          0
cpu0_L1I WRITE        ACCESS:          0  HIT:          0  MISS:          0  iACCESS:          0  iHIT:          0  iMISS:          0  dACCESS:          0  dHIT:          0  dMISS:          0  itACCESS:          0  itHIT:          0  itMISS:          0  dtACCESS:          0  dtHIT:          0  dtMISS:          0
cpu0_L1I TRANSLATION  ACCESS:          0  HIT:          0  MISS:          0  iACCESS:          0  iHIT:          0  iMISS:          0  dACCESS:          0  dHIT:          0  dMISS:          0  itACCESS:          0  itHIT:          0  itMISS:          0  dtACCESS:          0  dtHIT:          0  dtMISS:          0
cpu0_L1I PREFETCH  REQUESTED:   28048555  ISSUED:   28048001  CROSSED:          0  USEFUL:    2039624  USELESS:     665861
cpu0_L1I AVERAGE iMISS LATENCY: 19.1457 cycles
cpu0_L1I AVERAGE dMISS LATENCY: 0 cycles
cpu0_L1I AVERAGE itMISS LATENCY: 0 cycles
cpu0_L1I AVERAGE dtMISS LATENCY: 0 cycles
cpu0_L1I PAGE CROSSINGS (TLB HIT):         0 
cpu0_L1I PAGE CROSSINGS (TLB MISS):         0 
cpu0_L1I AVERAGE MISS LATENCY: 19.1457 cycles
cpu0_ITLB TOTAL       ACCESS:   30347545  HIT:   28377588  MISS:    1969957  iACCESS:   30347545  iHIT:   28377588  iMISS:    1969957  dACCESS:          0  dHIT:          0  dMISS:          0  itACCESS:          0  itHIT:          0  itMISS:          0  dtACCESS:          0  dtHIT:          0  dtMISS:          0
cpu0_ITLB LOAD         ACCESS:   30347545  HIT:   28377588  MISS:    1969957  iACCESS:   30347545  iHIT:   28377588  iMISS:    1969957  dACCESS:          0  dHIT:          0  dMISS:          0  itACCESS:          0  itHIT:          0  itMISS:          0  dtACCESS:          0  dtHIT:          0  dtMISS:          0
cpu0_ITLB RFO          ACCESS:          0  HIT:          0  MISS:          0  iACCESS:          0  iHIT:          0  iMISS:          0  dACCESS:          0  dHIT:          0  dMISS:          0  itACCESS:          0  itHIT:          0  itMISS:          0  dtACCESS:          0  dtHIT:          0  dtMISS:          0
cpu0_ITLB PREFETCH     ACCESS:          0  HIT:          0  MISS:          0  iACCESS:          0  iHIT:          0  iMISS:          0  dACCESS:          0  dHIT:          0  dMISS:          0  itACCESS:          0  itHIT:          0  itMISS:          0  dtACCESS:          0  dtHIT:          0  dtMISS:          0
cpu0_ITLB WRITE        ACCESS:          0  HIT:          0  MISS:          0  iACCESS:          0  iHIT:          0  iMISS:          0  dACCESS:          0  dHIT:          0  dMISS:          0  itACCESS:          0  itHIT:          0  itMISS:          0  dtACCESS:          0  dtHIT:          0  dtMISS:          0
cpu0_ITLB TRANSLATION  ACCESS:          0  HIT:          0  MISS:          0  iACCESS:          0  iHIT:          0  iMISS:          0  dACCESS:          0  dHIT:          0  dMISS:          0  itACCESS:          0  itHIT:          0  itMISS:          0  dtACCESS:          0  dtHIT:          0  dtMISS:          0
cpu0_ITLB PREFETCH  REQUESTED:          0  ISSUED:          0  CROSSED:          0  USEFUL:     333676  USELESS:      67170
cpu0_ITLB AVERAGE iMISS LATENCY: 5.93856 cycles
cpu0_ITLB AVERAGE dMISS LATENCY: 0 cycles
cpu0_ITLB AVERAGE itMISS LATENCY: 0 cycles
cpu0_ITLB AVERAGE dtMISS LATENCY: 0 cycles
cpu0_ITLB PAGE CROSSINGS (TLB HIT):         0 
cpu0_ITLB PAGE CROSSINGS (TLB MISS):         0 
cpu0_ITLB AVERAGE MISS LATENCY: 5.93856 cycles
cpu0_DTLB TOTAL       ACCESS:   27984653  HIT:   26024597  MISS:    1960056  iACCESS:          0  iHIT:          0  iMISS:          0  dACCESS:   27984653  dHIT:   26024597  dMISS:    1960056  itACCESS:          0  itHIT:          0  itMISS:          0  dtACCESS:          0  dtHIT:          0  dtMISS:          0
cpu0_DTLB LOAD         ACCESS:   27984653  HIT:   26024597  MISS:    1960056  iACCESS:          0  iHIT:          0  iMISS:          0  dACCESS:   27984653  dHIT:   26024597  dMISS:    1960056  itACCESS:          0  itHIT:          0  itMISS:          0  dtACCESS:          0  dtHIT:          0  dtMISS:          0
cpu0_DTLB RFO          ACCESS:          0  HIT:          0  MISS:          0  iACCESS:          0  iHIT:          0  iMISS:          0  dACCESS:          0  dHIT:          0  dMISS:          0  itACCESS:          0  itHIT:          0  itMISS:          0  dtACCESS:          0  dtHIT:          0  dtMISS:          0
cpu0_DTLB PREFETCH     ACCESS:          0  HIT:          0  MISS:          0  iACCESS:          0  iHIT:          0  iMISS:          0  dACCESS:          0  dHIT:          0  dMISS:          0  itACCESS:          0  itHIT:          0  itMISS:          0  dtACCESS:          0  dtHIT:          0  dtMISS:          0
cpu0_DTLB WRITE        ACCESS:          0  HIT:          0  MISS:          0  iACCESS:          0  iHIT:          0  iMISS:          0  dACCESS:          0  dHIT:          0  dMISS:          0  itACCESS:          0  itHIT:          0  itMISS:          0  dtACCESS:          0  dtHIT:          0  dtMISS:          0
cpu0_DTLB TRANSLATION  ACCESS:          0  HIT:          0  MISS:          0  iACCESS:          0  iHIT:          0  iMISS:          0  dACCESS:          0  dHIT:          0  dMISS:          0  itACCESS:          0  itHIT:          0  itMISS:          0  dtACCESS:          0  dtHIT:          0  dtMISS:          0
cpu0_DTLB PREFETCH  REQUESTED:          0  ISSUED:          0  CROSSED:          0  USEFUL:          0  USELESS:          0
cpu0_DTLB AVERAGE iMISS LATENCY: 0 cycles
cpu0_DTLB AVERAGE dMISS LATENCY: 15.4922 cycles
cpu0_DTLB AVERAGE itMISS LATENCY: 0 cycles
cpu0_DTLB AVERAGE dtMISS LATENCY: 0 cycles
cpu0_DTLB PAGE CROSSINGS (TLB HIT):         0 
cpu0_DTLB PAGE CROSSINGS (TLB MISS):         0 
cpu0_DTLB AVERAGE MISS LATENCY: 15.4922 cycles
cpu0_STLB TOTAL       ACCESS:    1635526  HIT:    1402064  MISS:     233462  iACCESS:     400852  iHIT:     311346  iMISS:      89506  dACCESS:    1234674  dHIT:    1090718  dMISS:     143956  itACCESS:          0  itHIT:          0  itMISS:          0  dtACCESS:          0  dtHIT:          0  dtMISS:          0
cpu0_STLB LOAD         ACCESS:    1635526  HIT:    1402064  MISS:     233462  iACCESS:     400852  iHIT:     311346  iMISS:      89506  dACCESS:    1234674  dHIT:    1090718  dMISS:     143956  itACCESS:          0  itHIT:          0  itMISS:          0  dtACCESS:          0  dtHIT:          0  dtMISS:          0
cpu0_STLB RFO          ACCESS:          0  HIT:          0  MISS:          0  iACCESS:          0  iHIT:          0  iMISS:          0  dACCESS:          0  dHIT:          0  dMISS:          0  itACCESS:          0  itHIT:          0  itMISS:          0  dtACCESS:          0  dtHIT:          0  dtMISS:          0
cpu0_STLB PREFETCH     ACCESS:          0  HIT:          0  MISS:          0  iACCESS:          0  iHIT:          0  iMISS:          0  dACCESS:          0  dHIT:          0  dMISS:          0  itACCESS:          0  itHIT:          0  itMISS:          0  dtACCESS:          0  dtHIT:          0  dtMISS:          0
cpu0_STLB WRITE        ACCESS:          0  HIT:          0  MISS:          0  iACCESS:          0  iHIT:          0  iMISS:          0  dACCESS:          0  dHIT:          0  dMISS:          0  itACCESS:          0  itHIT:          0  itMISS:          0  dtACCESS:          0  dtHIT:          0  dtMISS:          0
cpu0_STLB TRANSLATION  ACCESS:          0  HIT:          0  MISS:          0  iACCESS:          0  iHIT:          0  iMISS:          0  dACCESS:          0  dHIT:          0  dMISS:          0  itACCESS:          0  itHIT:          0  itMISS:          0  dtACCESS:          0  dtHIT:          0  dtMISS:          0
cpu0_STLB PREFETCH  REQUESTED:          0  ISSUED:          0  CROSSED:          0  USEFUL:          0  USELESS:          0
cpu0_STLB AVERAGE iMISS LATENCY: 36.4187 cycles
cpu0_STLB AVERAGE dMISS LATENCY: 87.86 cycles
cpu0_STLB AVERAGE itMISS LATENCY: 0 cycles
cpu0_STLB AVERAGE dtMISS LATENCY: 0 cycles
cpu0_STLB PAGE CROSSINGS (TLB HIT):         0 
cpu0_STLB PAGE CROSSINGS (TLB MISS):         0 
cpu0_STLB AVERAGE MISS LATENCY: 124.279 cycles
cpu0_L1D TOTAL       ACCESS:   42766333  HIT:   38542872  MISS:    4223461  iACCESS:          0  iHIT:          0  iMISS:          0  dACCESS:   42475048  dHIT:   38518764  dMISS:    3956284  itACCESS:      95542  itHIT:      12933  itMISS:      82609  dtACCESS:     195743  dtHIT:      11175  dtMISS:     184568
cpu0_L1D LOAD         ACCESS:   19406861  HIT:   17606732  MISS:    1800129  iACCESS:          0  iHIT:          0  iMISS:          0  dACCESS:   19406861  dHIT:   17606732  dMISS:    1800129  itACCESS:          0  itHIT:          0  itMISS:          0  dtACCESS:          0  dtHIT:          0  dtMISS:          0
cpu0_L1D RFO          ACCESS:          0  HIT:          0  MISS:          0  iACCESS:          0  iHIT:          0  iMISS:          0  dACCESS:          0  dHIT:          0  dMISS:          0  itACCESS:          0  itHIT:          0  itMISS:          0  dtACCESS:          0  dtHIT:          0  dtMISS:          0
cpu0_L1D PREFETCH     ACCESS:   12903090  HIT:   11223826  MISS:    1679264  iACCESS:          0  iHIT:          0  iMISS:          0  dACCESS:   12903090  dHIT:   11223826  dMISS:    1679264  itACCESS:          0  itHIT:          0  itMISS:          0  dtACCESS:          0  dtHIT:          0  dtMISS:          0
cpu0_L1D WRITE        ACCESS:   10165097  HIT:    9688206  MISS:     476891  iACCESS:          0  iHIT:          0  iMISS:          0  dACCESS:   10165097  dHIT:    9688206  dMISS:     476891  itACCESS:          0  itHIT:          0  itMISS:          0  dtACCESS:          0  dtHIT:          0  dtMISS:          0
cpu0_L1D TRANSLATION  ACCESS:     291285  HIT:      24108  MISS:     267177  iACCESS:          0  iHIT:          0  iMISS:          0  dACCESS:          0  dHIT:          0  dMISS:          0  itACCESS:      95542  itHIT:      12933  itMISS:      82609  dtACCESS:     195743  dtHIT:      11175  dtMISS:     184568
cpu0_L1D PREFETCH  REQUESTED:   19406861  ISSUED:   17358215  CROSSED:          0  USEFUL:     313857  USELESS:     715823
cpu0_L1D AVERAGE iMISS LATENCY: 0 cycles
cpu0_L1D AVERAGE dMISS LATENCY: 40.5669 cycles
cpu0_L1D AVERAGE itMISS LATENCY: 1.82795 cycles
cpu0_L1D AVERAGE dtMISS LATENCY: 4.37807 cycles
cpu0_L1D PAGE CROSSINGS (TLB HIT):         0 
cpu0_L1D PAGE CROSSINGS (TLB MISS):         0 
cpu0_L1D AVERAGE MISS LATENCY: 46.7729 cycles
cpu0_L2C TOTAL       ACCESS:    7437887  HIT:    2424051  MISS:    5013836  iACCESS:    3452590  iHIT:    1344202  iMISS:    2108388  dACCESS:    3721932  dHIT:     964320  dMISS:    2757612  itACCESS:      82609  itHIT:      36256  itMISS:      46353  dtACCESS:     180756  dtHIT:      79273  dtMISS:     101483
cpu0_L2C LOAD         ACCESS:    1750350  HIT:     494941  MISS:    1255409  iACCESS:     784378  iHIT:     285676  iMISS:     498702  dACCESS:     965972  dHIT:     209265  dMISS:     756707  itACCESS:          0  itHIT:          0  itMISS:          0  dtACCESS:          0  dtHIT:          0  dtMISS:          0
cpu0_L2C RFO          ACCESS:     163241  HIT:      33625  MISS:     129616  iACCESS:          0  iHIT:          0  iMISS:          0  dACCESS:     163241  dHIT:      33625  dMISS:     129616  itACCESS:          0  itHIT:          0  itMISS:          0  dtACCESS:          0  dtHIT:          0  dtMISS:          0
cpu0_L2C PREFETCH     ACCESS:    4984415  HIT:    1624634  MISS:    3359781  iACCESS:    2668212  iHIT:    1058526  iMISS:    1609686  dACCESS:    2316203  dHIT:     566108  dMISS:    1750095  itACCESS:          0  itHIT:          0  itMISS:          0  dtACCESS:          0  dtHIT:          0  dtMISS:          0
cpu0_L2C WRITE        ACCESS:     276516  HIT:     155322  MISS:     121194  iACCESS:          0  iHIT:          0  iMISS:          0  dACCESS:     276516  dHIT:     155322  dMISS:     121194  itACCESS:          0  itHIT:          0  itMISS:          0  dtACCESS:          0  dtHIT:          0  dtMISS:          0
cpu0_L2C TRANSLATION  ACCESS:     263365  HIT:     115529  MISS:     147836  iACCESS:          0  iHIT:          0  iMISS:          0  dACCESS:          0  dHIT:          0  dMISS:          0  itACCESS:      82609  itHIT:      36256  itMISS:      46353  dtACCESS:     180756  dtHIT:      79273  dtMISS:     101483
cpu0_L2C PREFETCH  REQUESTED:    1561107  ISSUED:    1561073  CROSSED:          0  USEFUL:     419415  USELESS:     389092
cpu0_L2C AVERAGE iMISS LATENCY: 25.4967 cycles
cpu0_L2C AVERAGE dMISS LATENCY: 43.6887 cycles
cpu0_L2C AVERAGE itMISS LATENCY: 1.38182 cycles
cpu0_L2C AVERAGE dtMISS LATENCY: 3.34165 cycles
cpu0_L2C PAGE CROSSINGS (TLB HIT):         0 
cpu0_L2C PAGE CROSSINGS (TLB MISS):         0 
cpu0_L2C AVERAGE MISS LATENCY: 73.9089 cycles
LLC TOTAL       ACCESS:    4900168  HIT:    3144082  MISS:    1756086  iACCESS:    2023151  iHIT:    1422621  iMISS:     600530  dACCESS:    2729181  dHIT:    1687285  dMISS:    1041896  itACCESS:      46353  itHIT:      12061  itMISS:      34292  dtACCESS:     101483  dtHIT:      22115  dtMISS:      79368
LLC LOAD         ACCESS:    1248864  HIT:     859156  MISS:     389708  iACCESS:     497299  iHIT:     369232  iMISS:     128067  dACCESS:     751565  dHIT:     489924  dMISS:     261641  itACCESS:          0  itHIT:          0  itMISS:          0  dtACCESS:          0  dtHIT:          0  dtMISS:          0
LLC RFO          ACCESS:     129606  HIT:      67480  MISS:      62126  iACCESS:          0  iHIT:          0  iMISS:          0  dACCESS:     129606  dHIT:      67480  dMISS:      62126  itACCESS:          0  itHIT:          0  itMISS:          0  dtACCESS:          0  dtHIT:          0  dtMISS:          0
LLC PREFETCH     ACCESS:    3168843  HIT:    1982262  MISS:    1186581  iACCESS:    1525852  iHIT:    1053389  iMISS:     472463  dACCESS:    1642991  dHIT:     928873  dMISS:     714118  itACCESS:          0  itHIT:          0  itMISS:          0  dtACCESS:          0  dtHIT:          0  dtMISS:          0
LLC WRITE        ACCESS:     205019  HIT:     201008  MISS:       4011  iACCESS:          0  iHIT:          0  iMISS:          0  dACCESS:     205019  dHIT:     201008  dMISS:       4011  itACCESS:          0  itHIT:          0  itMISS:          0  dtACCESS:          0  dtHIT:          0  dtMISS:          0
LLC TRANSLATION  ACCESS:     147836  HIT:      34176  MISS:     113660  iACCESS:          0  iHIT:          0  iMISS:          0  dACCESS:          0  dHIT:          0  dMISS:          0  itACCESS:      46353  itHIT:      12061  itMISS:      34292  dtACCESS:     101483  dtHIT:      22115  dtMISS:      79368
LLC PREFETCH  REQUESTED:          0  ISSUED:          0  CROSSED:          0  USEFUL:          0  USELESS:          0
LLC AVERAGE iMISS LATENCY: 50.4379 cycles
LLC AVERAGE dMISS LATENCY: 97.6328 cycles
LLC AVERAGE itMISS LATENCY: 3.42577 cycles
LLC AVERAGE dtMISS LATENCY: 8.40286 cycles
LLC PAGE CROSSINGS (TLB HIT):         0 
LLC PAGE CROSSINGS (TLB MISS):         0 
LLC AVERAGE MISS LATENCY: 159.9 cycles

PageTableWalker TOTAL       ACCESS:     116837  
PageTableWalker AVERAGE LATENCY: 3.81995 cycles
PageTableWalker TOTAL LATENCY: 446311 cycles

DRAM Statistics
Channel 0
 RQ ROW_BUFFER_HIT:     492887
  ROW_BUFFER_MISS:    1244204
 AVG DBUS CONGESTED CYCLE:     3.6433
 WQ ROW_BUFFER_HIT:      38905
  ROW_BUFFER_MISS:      33339  FULL:          0

