last_page:0x200000000000000
VMEM_RES_CAP:0x100000
PAGE_SIZE:4096
LOG2_PAGE_SIZE:12
LOG2_PAGE_TABLE_SIZE:9
page_table_levels:5
WARNING: physical memory size is smaller than virtual memory size
FDiP enabled with aggresivity 16

*** ChampSim Multicore Out-of-Order Simulator ***

Warmup Instructions: 50000000
Simulation Instructions: 100000000
Number of CPUs: 1
Small page size: 4096
Large page size: 2097152

CPU 0 Bimodal branch predictor
Basic BTB sets: 1024 ways: 8 indirect buffer size: 4096 RAS size: 64
Instruction page size distrubution: 0
Loading instruction page size distribution from /home/bsc/bsc018186/scratch/itp_asplos25_AE/dump/srv426_ap.pdst
Data page size distrubution: 0
Loading data page size distribution from /home/bsc/bsc018186/scratch/itp_asplos25_AE/dump/srv426_ap.pdst
cpu0_L2C IP-based stride prefetcher
cpu0_L1D next line prefetcher
cpu0_L1I next line prefetcher
Off-chip DRAM Size: 4 GiB Channels: 1 Width: 64-bit Data Rate: 3200 MT/s
Heartbeat CPU 0 instructions: 10000002 cycles: 2501355 heartbeat IPC: 3.99784 cumulative IPC: 3.99784 (Simulation time: 0 hr 0 min 33 sec) 
Heartbeat CPU 0 instructions: 20000002 cycles: 5001958 heartbeat IPC: 3.99904 cumulative IPC: 3.99844 (Simulation time: 0 hr 1 min 10 sec) 
Heartbeat CPU 0 instructions: 30000003 cycles: 7504163 heartbeat IPC: 3.99648 cumulative IPC: 3.99779 (Simulation time: 0 hr 1 min 46 sec) 
Heartbeat CPU 0 instructions: 40000002 cycles: 10008770 heartbeat IPC: 3.99265 cumulative IPC: 3.9965 (Simulation time: 0 hr 2 min 22 sec) 
Heartbeat CPU 0 instructions: 50000000 cycles: 12509081 heartbeat IPC: 3.99951 cumulative IPC: 3.9971 (Simulation time: 0 hr 2 min 59 sec) 
Warmup finished CPU 0 instructions: 50000000 cycles: 12509082 cumulative IPC: 3.9971 (Simulation time: 0 hr 2 min 59 sec) 

Warmup complete CPU 0 instructions: 50000000 cycles: 12509082 (Simulation time: 0 hr 2 min 59 sec) 

Heartbeat CPU 0 instructions: 60000000 cycles: 35457957 heartbeat IPC: 0.435752 cumulative IPC: 0.435752 (Simulation time: 0 hr 4 min 8 sec) 
Heartbeat CPU 0 instructions: 70000000 cycles: 56085354 heartbeat IPC: 0.484793 cumulative IPC: 0.458966 (Simulation time: 0 hr 5 min 14 sec) 
Heartbeat CPU 0 instructions: 80000002 cycles: 75455711 heartbeat IPC: 0.516253 cumulative IPC: 0.476595 (Simulation time: 0 hr 6 min 19 sec) 
Heartbeat CPU 0 instructions: 90000000 cycles: 96319030 heartbeat IPC: 0.479311 cumulative IPC: 0.477271 (Simulation time: 0 hr 7 min 28 sec) 
Heartbeat CPU 0 instructions: 100000002 cycles: 118119338 heartbeat IPC: 0.45871 cumulative IPC: 0.473439 (Simulation time: 0 hr 8 min 36 sec) 
*** Reached end of trace: /gpfs/projects/bsc18/MN4/bsc18/romol/ChampSim/traces/qualcomm_srv/srv426_ap.champsimtrace.xz
Heartbeat CPU 0 instructions: 110000001 cycles: 137725046 heartbeat IPC: 0.510056 cumulative IPC: 0.479173 (Simulation time: 0 hr 9 min 40 sec) 
Heartbeat CPU 0 instructions: 120000001 cycles: 158390780 heartbeat IPC: 0.483893 cumulative IPC: 0.479841 (Simulation time: 0 hr 10 min 47 sec) 
Heartbeat CPU 0 instructions: 130000000 cycles: 181005571 heartbeat IPC: 0.442189 cumulative IPC: 0.474788 (Simulation time: 0 hr 11 min 57 sec) 
Heartbeat CPU 0 instructions: 140000000 cycles: 204113053 heartbeat IPC: 0.432761 cumulative IPC: 0.469719 (Simulation time: 0 hr 13 min 7 sec) 
Heartbeat CPU 0 instructions: 150000000 cycles: 225268174 heartbeat IPC: 0.472699 cumulative IPC: 0.470016 (Simulation time: 0 hr 14 min 15 sec) 
Simulation finished CPU 0 instructions: 100000000 cycles: 212759093 cumulative IPC: 0.470016 (Simulation time: 0 hr 14 min 15 sec) 

Simulation complete CPU 0 instructions: 100000000 cycles: 212759093 (Simulation time: 0 hr 14 min 15 sec) 


ChampSim completed all CPUs

Saving instructions large page distribution to /home/bsc/bsc018186/scratch/itp_asplos25_AE/dump/srv426_ap.pdst...
Saving data large page distribution to /home/bsc/bsc018186/scratch/itp_asplos25_AE/dump/srv426_ap.pdst...
=== Simulation ===
CPU 0 runs /gpfs/projects/bsc18/MN4/bsc18/romol/ChampSim/traces/qualcomm_srv/srv426_ap.champsimtrace.xz

Region of Interest Statistics

CPU 0 cumulative IPC: 0.470016 instructions: 100000000 cycles: 212759093
CPU 0 Branch Prediction Accuracy: 81.1561% MPKI: 34.1327 Average ROB Occupancy at Mispredict: 11.793
Branch type MPKI
BRANCH_DIRECT_JUMP: 1.08801
BRANCH_INDIRECT: 16.565
BRANCH_CONDITIONAL: 11.8408
BRANCH_DIRECT_CALL: 2.01459
BRANCH_INDIRECT_CALL: 1.12874
BRANCH_RETURN: 1.49567

Instructions large pages: 0
Instructions small pages: 1248
Large page distribution for instructions: 0%

Data large pages: 0
Data small pages: 5192
Large page distribution for data: 0%

cpu0_L1I TOTAL       ACCESS:   31840785  HIT:   25169937  MISS:    6670848  iACCESS:   31840785  iHIT:   25169937  iMISS:    6670848  dACCESS:          0  dHIT:          0  dMISS:          0  itACCESS:          0  itHIT:          0  itMISS:          0  dtACCESS:          0  dtHIT:          0  dtMISS:          0
cpu0_L1I LOAD         ACCESS:    8523290  HIT:    6674832  MISS:    1848458  iACCESS:    8523290  iHIT:    6674832  iMISS:    1848458  dACCESS:          0  dHIT:          0  dMISS:          0  itACCESS:          0  itHIT:          0  itMISS:          0  dtACCESS:          0  dtHIT:          0  dtMISS:          0
cpu0_L1I RFO          ACCESS:          0  HIT:          0  MISS:          0  iACCESS:          0  iHIT:          0  iMISS:          0  dACCESS:          0  dHIT:          0  dMISS:          0  itACCESS:          0  itHIT:          0  itMISS:          0  dtACCESS:          0  dtHIT:          0  dtMISS:          0
cpu0_L1I PREFETCH     ACCESS:   23317495  HIT:   18495105  MISS:    4822390  iACCESS:   23317495  iHIT:   18495105  iMISS:    4822390  dACCESS:          0  dHIT:          0  dMISS:          0  itACCESS:          0  itHIT:          0  itMISS:          0  dtACCESS:          0  dtHIT:          0  dtMISS:          0
cpu0_L1I WRITE        ACCESS:          0  HIT:          0  MISS:          0  iACCESS:          0  iHIT:          0  iMISS:          0  dACCESS:          0  dHIT:          0  dMISS:          0  itACCESS:          0  itHIT:          0  itMISS:          0  dtACCESS:          0  dtHIT:          0  dtMISS:          0
cpu0_L1I TRANSLATION  ACCESS:          0  HIT:          0  MISS:          0  iACCESS:          0  iHIT:          0  iMISS:          0  dACCESS:          0  dHIT:          0  dMISS:          0  itACCESS:          0  itHIT:          0  itMISS:          0  dtACCESS:          0  dtHIT:          0  dtMISS:          0
cpu0_L1I PREFETCH  REQUESTED:   25284031  ISSUED:   25283504  CROSSED:          0  USEFUL:    1644572  USELESS:     562986
cpu0_L1I AVERAGE iMISS LATENCY: 21.9571 cycles
cpu0_L1I AVERAGE dMISS LATENCY: 0 cycles
cpu0_L1I AVERAGE itMISS LATENCY: 0 cycles
cpu0_L1I AVERAGE dtMISS LATENCY: 0 cycles
cpu0_L1I PAGE CROSSINGS (TLB HIT):         0 
cpu0_L1I PAGE CROSSINGS (TLB MISS):         0 
cpu0_L1I AVERAGE MISS LATENCY: 21.9571 cycles
cpu0_ITLB TOTAL       ACCESS:   27129822  HIT:   25473347  MISS:    1656475  iACCESS:   27129822  iHIT:   25473347  iMISS:    1656475  dACCESS:          0  dHIT:          0  dMISS:          0  itACCESS:          0  itHIT:          0  itMISS:          0  dtACCESS:          0  dtHIT:          0  dtMISS:          0
cpu0_ITLB LOAD         ACCESS:   27129822  HIT:   25473347  MISS:    1656475  iACCESS:   27129822  iHIT:   25473347  iMISS:    1656475  dACCESS:          0  dHIT:          0  dMISS:          0  itACCESS:          0  itHIT:          0  itMISS:          0  dtACCESS:          0  dtHIT:          0  dtMISS:          0
cpu0_ITLB RFO          ACCESS:          0  HIT:          0  MISS:          0  iACCESS:          0  iHIT:          0  iMISS:          0  dACCESS:          0  dHIT:          0  dMISS:          0  itACCESS:          0  itHIT:          0  itMISS:          0  dtACCESS:          0  dtHIT:          0  dtMISS:          0
cpu0_ITLB PREFETCH     ACCESS:          0  HIT:          0  MISS:          0  iACCESS:          0  iHIT:          0  iMISS:          0  dACCESS:          0  dHIT:          0  dMISS:          0  itACCESS:          0  itHIT:          0  itMISS:          0  dtACCESS:          0  dtHIT:          0  dtMISS:          0
cpu0_ITLB WRITE        ACCESS:          0  HIT:          0  MISS:          0  iACCESS:          0  iHIT:          0  iMISS:          0  dACCESS:          0  dHIT:          0  dMISS:          0  itACCESS:          0  itHIT:          0  itMISS:          0  dtACCESS:          0  dtHIT:          0  dtMISS:          0
cpu0_ITLB TRANSLATION  ACCESS:          0  HIT:          0  MISS:          0  iACCESS:          0  iHIT:          0  iMISS:          0  dACCESS:          0  dHIT:          0  dMISS:          0  itACCESS:          0  itHIT:          0  itMISS:          0  dtACCESS:          0  dtHIT:          0  dtMISS:          0
cpu0_ITLB PREFETCH  REQUESTED:          0  ISSUED:          0  CROSSED:          0  USEFUL:     279847  USELESS:      52347
cpu0_ITLB AVERAGE iMISS LATENCY: 8.74484 cycles
cpu0_ITLB AVERAGE dMISS LATENCY: 0 cycles
cpu0_ITLB AVERAGE itMISS LATENCY: 0 cycles
cpu0_ITLB AVERAGE dtMISS LATENCY: 0 cycles
cpu0_ITLB PAGE CROSSINGS (TLB HIT):         0 
cpu0_ITLB PAGE CROSSINGS (TLB MISS):         0 
cpu0_ITLB AVERAGE MISS LATENCY: 8.74484 cycles
cpu0_DTLB TOTAL       ACCESS:   29335277  HIT:   27514616  MISS:    1820661  iACCESS:          0  iHIT:          0  iMISS:          0  dACCESS:   29335277  dHIT:   27514616  dMISS:    1820661  itACCESS:          0  itHIT:          0  itMISS:          0  dtACCESS:          0  dtHIT:          0  dtMISS:          0
cpu0_DTLB LOAD         ACCESS:   29335277  HIT:   27514616  MISS:    1820661  iACCESS:          0  iHIT:          0  iMISS:          0  dACCESS:   29335277  dHIT:   27514616  dMISS:    1820661  itACCESS:          0  itHIT:          0  itMISS:          0  dtACCESS:          0  dtHIT:          0  dtMISS:          0
cpu0_DTLB RFO          ACCESS:          0  HIT:          0  MISS:          0  iACCESS:          0  iHIT:          0  iMISS:          0  dACCESS:          0  dHIT:          0  dMISS:          0  itACCESS:          0  itHIT:          0  itMISS:          0  dtACCESS:          0  dtHIT:          0  dtMISS:          0
cpu0_DTLB PREFETCH     ACCESS:          0  HIT:          0  MISS:          0  iACCESS:          0  iHIT:          0  iMISS:          0  dACCESS:          0  dHIT:          0  dMISS:          0  itACCESS:          0  itHIT:          0  itMISS:          0  dtACCESS:          0  dtHIT:          0  dtMISS:          0
cpu0_DTLB WRITE        ACCESS:          0  HIT:          0  MISS:          0  iACCESS:          0  iHIT:          0  iMISS:          0  dACCESS:          0  dHIT:          0  dMISS:          0  itACCESS:          0  itHIT:          0  itMISS:          0  dtACCESS:          0  dtHIT:          0  dtMISS:          0
cpu0_DTLB TRANSLATION  ACCESS:          0  HIT:          0  MISS:          0  iACCESS:          0  iHIT:          0  iMISS:          0  dACCESS:          0  dHIT:          0  dMISS:          0  itACCESS:          0  itHIT:          0  itMISS:          0  dtACCESS:          0  dtHIT:          0  dtMISS:          0
cpu0_DTLB PREFETCH  REQUESTED:          0  ISSUED:          0  CROSSED:          0  USEFUL:          0  USELESS:          0
cpu0_DTLB AVERAGE iMISS LATENCY: 0 cycles
cpu0_DTLB AVERAGE dMISS LATENCY: 22.4227 cycles
cpu0_DTLB AVERAGE itMISS LATENCY: 0 cycles
cpu0_DTLB AVERAGE dtMISS LATENCY: 0 cycles
cpu0_DTLB PAGE CROSSINGS (TLB HIT):         0 
cpu0_DTLB PAGE CROSSINGS (TLB MISS):         0 
cpu0_DTLB AVERAGE MISS LATENCY: 22.4227 cycles
cpu0_STLB TOTAL       ACCESS:    1408944  HIT:    1186480  MISS:     222464  iACCESS:     332199  iHIT:     250980  iMISS:      81219  dACCESS:    1076745  dHIT:     935500  dMISS:     141245  itACCESS:          0  itHIT:          0  itMISS:          0  dtACCESS:          0  dtHIT:          0  dtMISS:          0
cpu0_STLB LOAD         ACCESS:    1408944  HIT:    1186480  MISS:     222464  iACCESS:     332199  iHIT:     250980  iMISS:      81219  dACCESS:    1076745  dHIT:     935500  dMISS:     141245  itACCESS:          0  itHIT:          0  itMISS:          0  dtACCESS:          0  dtHIT:          0  dtMISS:          0
cpu0_STLB RFO          ACCESS:          0  HIT:          0  MISS:          0  iACCESS:          0  iHIT:          0  iMISS:          0  dACCESS:          0  dHIT:          0  dMISS:          0  itACCESS:          0  itHIT:          0  itMISS:          0  dtACCESS:          0  dtHIT:          0  dtMISS:          0
cpu0_STLB PREFETCH     ACCESS:          0  HIT:          0  MISS:          0  iACCESS:          0  iHIT:          0  iMISS:          0  dACCESS:          0  dHIT:          0  dMISS:          0  itACCESS:          0  itHIT:          0  itMISS:          0  dtACCESS:          0  dtHIT:          0  dtMISS:          0
cpu0_STLB WRITE        ACCESS:          0  HIT:          0  MISS:          0  iACCESS:          0  iHIT:          0  iMISS:          0  dACCESS:          0  dHIT:          0  dMISS:          0  itACCESS:          0  itHIT:          0  itMISS:          0  dtACCESS:          0  dtHIT:          0  dtMISS:          0
cpu0_STLB TRANSLATION  ACCESS:          0  HIT:          0  MISS:          0  iACCESS:          0  iHIT:          0  iMISS:          0  dACCESS:          0  dHIT:          0  dMISS:          0  itACCESS:          0  itHIT:          0  itMISS:          0  dtACCESS:          0  dtHIT:          0  dtMISS:          0
cpu0_STLB PREFETCH  REQUESTED:          0  ISSUED:          0  CROSSED:          0  USEFUL:          0  USELESS:          0
cpu0_STLB AVERAGE iMISS LATENCY: 53.1473 cycles
cpu0_STLB AVERAGE dMISS LATENCY: 144.732 cycles
cpu0_STLB AVERAGE itMISS LATENCY: 0 cycles
cpu0_STLB AVERAGE dtMISS LATENCY: 0 cycles
cpu0_STLB PAGE CROSSINGS (TLB HIT):         0 
cpu0_STLB PAGE CROSSINGS (TLB MISS):         0 
cpu0_STLB AVERAGE MISS LATENCY: 197.88 cycles
cpu0_L1D TOTAL       ACCESS:   45878339  HIT:   39816596  MISS:    6061743  iACCESS:          0  iHIT:          0  iMISS:          0  dACCESS:   45538622  dHIT:   39789070  dMISS:    5749552  itACCESS:      92753  itHIT:      14773  itMISS:      77980  dtACCESS:     246964  dtHIT:      12753  dtMISS:     234211
cpu0_L1D LOAD         ACCESS:   21952541  HIT:   19285150  MISS:    2667391  iACCESS:          0  iHIT:          0  iMISS:          0  dACCESS:   21952541  dHIT:   19285150  dMISS:    2667391  itACCESS:          0  itHIT:          0  itMISS:          0  dtACCESS:          0  dtHIT:          0  dtMISS:          0
cpu0_L1D RFO          ACCESS:          0  HIT:          0  MISS:          0  iACCESS:          0  iHIT:          0  iMISS:          0  dACCESS:          0  dHIT:          0  dMISS:          0  itACCESS:          0  itHIT:          0  itMISS:          0  dtACCESS:          0  dtHIT:          0  dtMISS:          0
cpu0_L1D PREFETCH     ACCESS:   13916379  HIT:   11524328  MISS:    2392051  iACCESS:          0  iHIT:          0  iMISS:          0  dACCESS:   13916379  dHIT:   11524328  dMISS:    2392051  itACCESS:          0  itHIT:          0  itMISS:          0  dtACCESS:          0  dtHIT:          0  dtMISS:          0
cpu0_L1D WRITE        ACCESS:    9669702  HIT:    8979592  MISS:     690110  iACCESS:          0  iHIT:          0  iMISS:          0  dACCESS:    9669702  dHIT:    8979592  dMISS:     690110  itACCESS:          0  itHIT:          0  itMISS:          0  dtACCESS:          0  dtHIT:          0  dtMISS:          0
cpu0_L1D TRANSLATION  ACCESS:     339717  HIT:      27526  MISS:     312191  iACCESS:          0  iHIT:          0  iMISS:          0  dACCESS:          0  dHIT:          0  dMISS:          0  itACCESS:      92753  itHIT:      14773  itMISS:      77980  dtACCESS:     246964  dtHIT:      12753  dtMISS:     234211
cpu0_L1D PREFETCH  REQUESTED:   21952541  ISSUED:   18525961  CROSSED:          0  USEFUL:     316311  USELESS:     700565
cpu0_L1D AVERAGE iMISS LATENCY: 0 cycles
cpu0_L1D AVERAGE dMISS LATENCY: 36.7181 cycles
cpu0_L1D AVERAGE itMISS LATENCY: 1.82876 cycles
cpu0_L1D AVERAGE dtMISS LATENCY: 4.95677 cycles
cpu0_L1D PAGE CROSSINGS (TLB HIT):         0 
cpu0_L1D PAGE CROSSINGS (TLB MISS):         0 
cpu0_L1D AVERAGE MISS LATENCY: 43.5036 cycles
cpu0_L2C TOTAL       ACCESS:    6748196  HIT:    3387388  MISS:    3360808  iACCESS:    2841540  iHIT:    1696992  iMISS:    1144548  dACCESS:    3660926  dHIT:    1657339  dMISS:    2003587  itACCESS:      72397  itHIT:      11682  itMISS:      60715  dtACCESS:     173333  dtHIT:      21375  dtMISS:     151958
cpu0_L2C LOAD         ACCESS:    1802897  HIT:     967515  MISS:     835382  iACCESS:     664258  iHIT:     423597  iMISS:     240661  dACCESS:    1138639  dHIT:     543918  dMISS:     594721  itACCESS:          0  itHIT:          0  itMISS:          0  dtACCESS:          0  dtHIT:          0  dtMISS:          0
cpu0_L2C RFO          ACCESS:     172100  HIT:      61814  MISS:     110286  iACCESS:          0  iHIT:          0  iMISS:          0  dACCESS:     172100  dHIT:      61814  dMISS:     110286  itACCESS:          0  itHIT:          0  itMISS:          0  dtACCESS:          0  dtHIT:          0  dtMISS:          0
cpu0_L2C PREFETCH     ACCESS:    4243718  HIT:    2042406  MISS:    2201312  iACCESS:    2177282  iHIT:    1273395  iMISS:     903887  dACCESS:    2066436  dHIT:     769011  dMISS:    1297425  itACCESS:          0  itHIT:          0  itMISS:          0  dtACCESS:          0  dtHIT:          0  dtMISS:          0
cpu0_L2C WRITE        ACCESS:     283751  HIT:     282596  MISS:       1155  iACCESS:          0  iHIT:          0  iMISS:          0  dACCESS:     283751  dHIT:     282596  dMISS:       1155  itACCESS:          0  itHIT:          0  itMISS:          0  dtACCESS:          0  dtHIT:          0  dtMISS:          0
cpu0_L2C TRANSLATION  ACCESS:     245730  HIT:      33057  MISS:     212673  iACCESS:          0  iHIT:          0  iMISS:          0  dACCESS:          0  dHIT:          0  dMISS:          0  itACCESS:      72397  itHIT:      11682  itMISS:      60715  dtACCESS:     173333  dtHIT:      21375  dtMISS:     151958
cpu0_L2C PREFETCH  REQUESTED:    1257024  ISSUED:    1255268  CROSSED:          0  USEFUL:     294307  USELESS:     259825
cpu0_L2C AVERAGE iMISS LATENCY: 36.2145 cycles
cpu0_L2C AVERAGE dMISS LATENCY: 79.9433 cycles
cpu0_L2C AVERAGE itMISS LATENCY: 3.0857 cycles
cpu0_L2C AVERAGE dtMISS LATENCY: 8.4279 cycles
cpu0_L2C PAGE CROSSINGS (TLB HIT):         0 
cpu0_L2C PAGE CROSSINGS (TLB MISS):         0 
cpu0_L2C AVERAGE MISS LATENCY: 127.672 cycles
LLC TOTAL       ACCESS:    3350935  HIT:    1184141  MISS:    2166794  iACCESS:    1074742  iHIT:     403835  iMISS:     670907  dACCESS:    2063520  dHIT:     746318  dMISS:    1317202  itACCESS:      60715  itHIT:       8922  itMISS:      51793  dtACCESS:     151958  dtHIT:      25066  dtMISS:     126892
LLC LOAD         ACCESS:     829704  HIT:     294309  MISS:     535395  iACCESS:     239445  iHIT:      95462  iMISS:     143983  dACCESS:     590259  dHIT:     198847  dMISS:     391412  itACCESS:          0  itHIT:          0  itMISS:          0  dtACCESS:          0  dtHIT:          0  dtMISS:          0
LLC RFO          ACCESS:     110286  HIT:      31330  MISS:      78956  iACCESS:          0  iHIT:          0  iMISS:          0  dACCESS:     110286  dHIT:      31330  dMISS:      78956  itACCESS:          0  itHIT:          0  itMISS:          0  dtACCESS:          0  dtHIT:          0  dtMISS:          0
LLC PREFETCH     ACCESS:    2039065  HIT:     675508  MISS:    1363557  iACCESS:     835297  iHIT:     308373  iMISS:     526924  dACCESS:    1203768  dHIT:     367135  dMISS:     836633  itACCESS:          0  itHIT:          0  itMISS:          0  dtACCESS:          0  dtHIT:          0  dtMISS:          0
LLC WRITE        ACCESS:     159207  HIT:     149006  MISS:      10201  iACCESS:          0  iHIT:          0  iMISS:          0  dACCESS:     159207  dHIT:     149006  dMISS:      10201  itACCESS:          0  itHIT:          0  itMISS:          0  dtACCESS:          0  dtHIT:          0  dtMISS:          0
LLC TRANSLATION  ACCESS:     212673  HIT:      33988  MISS:     178685  iACCESS:          0  iHIT:          0  iMISS:          0  dACCESS:          0  dHIT:          0  dMISS:          0  itACCESS:      60715  itHIT:       8922  itMISS:      51793  dtACCESS:     151958  dtHIT:      25066  dtMISS:     126892
LLC PREFETCH  REQUESTED:          0  ISSUED:          0  CROSSED:          0  USEFUL:          0  USELESS:          0
LLC AVERAGE iMISS LATENCY: 46.4208 cycles
LLC AVERAGE dMISS LATENCY: 107.863 cycles
LLC AVERAGE itMISS LATENCY: 4.23193 cycles
LLC AVERAGE dtMISS LATENCY: 11.6895 cycles
LLC PAGE CROSSINGS (TLB HIT):         0 
LLC PAGE CROSSINGS (TLB MISS):         0 
LLC AVERAGE MISS LATENCY: 170.205 cycles

PageTableWalker TOTAL       ACCESS:     113214  
PageTableWalker AVERAGE LATENCY: 5.12685 cycles
PageTableWalker TOTAL LATENCY: 580431 cycles

DRAM Statistics
Channel 0
 RQ ROW_BUFFER_HIT:     578393
  ROW_BUFFER_MISS:    1561586
 AVG DBUS CONGESTED CYCLE:    3.65894
 WQ ROW_BUFFER_HIT:      44121
  ROW_BUFFER_MISS:      43871  FULL:          0

