last_page:0x200000000000000
VMEM_RES_CAP:0x100000
PAGE_SIZE:4096
LOG2_PAGE_SIZE:12
LOG2_PAGE_TABLE_SIZE:9
page_table_levels:5
WARNING: physical memory size is smaller than virtual memory size
FDiP enabled with aggresivity 16

*** ChampSim Multicore Out-of-Order Simulator ***

Warmup Instructions: 50000000
Simulation Instructions: 100000000
Number of CPUs: 1
Small page size: 4096
Large page size: 2097152

CPU 0 Bimodal branch predictor
Basic BTB sets: 1024 ways: 8 indirect buffer size: 4096 RAS size: 64
Instruction page size distrubution: 0
Loading instruction page size distribution from /home/bsc/bsc018186/scratch/itp_asplos25_AE/dump/srv425_ap.pdst
Data page size distrubution: 0
Loading data page size distribution from /home/bsc/bsc018186/scratch/itp_asplos25_AE/dump/srv425_ap.pdst
cpu0_L2C IP-based stride prefetcher
cpu0_L1D next line prefetcher
CHiRPing...
cpu0_L1I next line prefetcher
Off-chip DRAM Size: 4 GiB Channels: 1 Width: 64-bit Data Rate: 3200 MT/s
Heartbeat CPU 0 instructions: 10000003 cycles: 2500327 heartbeat IPC: 3.99948 cumulative IPC: 3.99948 (Simulation time: 0 hr 0 min 39 sec) 
Heartbeat CPU 0 instructions: 20000003 cycles: 5000346 heartbeat IPC: 3.99997 cumulative IPC: 3.99973 (Simulation time: 0 hr 1 min 20 sec) 
Heartbeat CPU 0 instructions: 30000000 cycles: 7500349 heartbeat IPC: 4 cumulative IPC: 3.99982 (Simulation time: 0 hr 2 min 2 sec) 
Heartbeat CPU 0 instructions: 40000003 cycles: 10000361 heartbeat IPC: 3.99999 cumulative IPC: 3.99986 (Simulation time: 0 hr 2 min 44 sec) 
Heartbeat CPU 0 instructions: 50000000 cycles: 12500365 heartbeat IPC: 4 cumulative IPC: 3.99989 (Simulation time: 0 hr 3 min 26 sec) 
Warmup finished CPU 0 instructions: 50000000 cycles: 12500366 cumulative IPC: 3.99989 (Simulation time: 0 hr 3 min 26 sec) 

Warmup complete CPU 0 instructions: 50000000 cycles: 12500366 (Simulation time: 0 hr 3 min 26 sec) 

Heartbeat CPU 0 instructions: 60000002 cycles: 26667144 heartbeat IPC: 0.705877 cumulative IPC: 0.705877 (Simulation time: 0 hr 4 min 30 sec) 
Heartbeat CPU 0 instructions: 70000000 cycles: 40962088 heartbeat IPC: 0.699548 cumulative IPC: 0.702699 (Simulation time: 0 hr 5 min 35 sec) 
Heartbeat CPU 0 instructions: 80000003 cycles: 54450564 heartbeat IPC: 0.741374 cumulative IPC: 0.715134 (Simulation time: 0 hr 6 min 39 sec) 
Heartbeat CPU 0 instructions: 90000001 cycles: 68738633 heartbeat IPC: 0.699885 cumulative IPC: 0.71126 (Simulation time: 0 hr 7 min 44 sec) 
Heartbeat CPU 0 instructions: 100000002 cycles: 82305774 heartbeat IPC: 0.737076 cumulative IPC: 0.716277 (Simulation time: 0 hr 8 min 48 sec) 
*** Reached end of trace: /gpfs/projects/bsc18/MN4/bsc18/romol/ChampSim/traces/qualcomm_srv/srv425_ap.champsimtrace.xz
Heartbeat CPU 0 instructions: 110000003 cycles: 97091746 heartbeat IPC: 0.676317 cumulative IPC: 0.709293 (Simulation time: 0 hr 9 min 53 sec) 
Heartbeat CPU 0 instructions: 120000000 cycles: 110082859 heartbeat IPC: 0.769757 cumulative IPC: 0.717342 (Simulation time: 0 hr 10 min 57 sec) 
Heartbeat CPU 0 instructions: 130000002 cycles: 123629671 heartbeat IPC: 0.738182 cumulative IPC: 0.719883 (Simulation time: 0 hr 12 min 1 sec) 
Heartbeat CPU 0 instructions: 140000000 cycles: 137895146 heartbeat IPC: 0.700993 cumulative IPC: 0.717734 (Simulation time: 0 hr 13 min 6 sec) 
Heartbeat CPU 0 instructions: 150000001 cycles: 150836651 heartbeat IPC: 0.772708 cumulative IPC: 0.722877 (Simulation time: 0 hr 14 min 9 sec) 
Simulation finished CPU 0 instructions: 100000001 cycles: 138336286 cumulative IPC: 0.722877 (Simulation time: 0 hr 14 min 9 sec) 

Simulation complete CPU 0 instructions: 100000001 cycles: 138336286 (Simulation time: 0 hr 14 min 9 sec) 


ChampSim completed all CPUs

Saving instructions large page distribution to /home/bsc/bsc018186/scratch/itp_asplos25_AE/dump/srv425_ap.pdst...
Saving data large page distribution to /home/bsc/bsc018186/scratch/itp_asplos25_AE/dump/srv425_ap.pdst...
=== Simulation ===
CPU 0 runs /gpfs/projects/bsc18/MN4/bsc18/romol/ChampSim/traces/qualcomm_srv/srv425_ap.champsimtrace.xz

Region of Interest Statistics

CPU 0 cumulative IPC: 0.722877 instructions: 100000001 cycles: 138336286
CPU 0 Branch Prediction Accuracy: 83.6679% MPKI: 29.2186 Average ROB Occupancy at Mispredict: 12.4844
Branch type MPKI
BRANCH_DIRECT_JUMP: 0.98956
BRANCH_INDIRECT: 15.0836
BRANCH_CONDITIONAL: 9.55682
BRANCH_DIRECT_CALL: 1.78352
BRANCH_INDIRECT_CALL: 0.50776
BRANCH_RETURN: 1.29738

Instructions large pages: 0
Instructions small pages: 1003
Large page distribution for instructions: 0%

Data large pages: 0
Data small pages: 10167
Large page distribution for data: 0%

cpu0_L1I TOTAL       ACCESS:   35173219  HIT:   26795092  MISS:    8378127  iACCESS:   35173219  iHIT:   26795092  iMISS:    8378127  dACCESS:          0  dHIT:          0  dMISS:          0  itACCESS:          0  itHIT:          0  itMISS:          0  dtACCESS:          0  dtHIT:          0  dtMISS:          0
cpu0_L1I LOAD         ACCESS:   10326341  HIT:    7975197  MISS:    2351144  iACCESS:   10326341  iHIT:    7975197  iMISS:    2351144  dACCESS:          0  dHIT:          0  dMISS:          0  itACCESS:          0  itHIT:          0  itMISS:          0  dtACCESS:          0  dtHIT:          0  dtMISS:          0
cpu0_L1I RFO          ACCESS:          0  HIT:          0  MISS:          0  iACCESS:          0  iHIT:          0  iMISS:          0  dACCESS:          0  dHIT:          0  dMISS:          0  itACCESS:          0  itHIT:          0  itMISS:          0  dtACCESS:          0  dtHIT:          0  dtMISS:          0
cpu0_L1I PREFETCH     ACCESS:   24846878  HIT:   18819895  MISS:    6026983  iACCESS:   24846878  iHIT:   18819895  iMISS:    6026983  dACCESS:          0  dHIT:          0  dMISS:          0  itACCESS:          0  itHIT:          0  itMISS:          0  dtACCESS:          0  dtHIT:          0  dtMISS:          0
cpu0_L1I WRITE        ACCESS:          0  HIT:          0  MISS:          0  iACCESS:          0  iHIT:          0  iMISS:          0  dACCESS:          0  dHIT:          0  dMISS:          0  itACCESS:          0  itHIT:          0  itMISS:          0  dtACCESS:          0  dtHIT:          0  dtMISS:          0
cpu0_L1I TRANSLATION  ACCESS:          0  HIT:          0  MISS:          0  iACCESS:          0  iHIT:          0  iMISS:          0  dACCESS:          0  dHIT:          0  dMISS:          0  itACCESS:          0  itHIT:          0  itMISS:          0  dtACCESS:          0  dtHIT:          0  dtMISS:          0
cpu0_L1I PREFETCH  REQUESTED:   27207470  ISSUED:   27205728  CROSSED:          0  USEFUL:    1897439  USELESS:     629094
cpu0_L1I AVERAGE iMISS LATENCY: 13.1138 cycles
cpu0_L1I AVERAGE dMISS LATENCY: 0 cycles
cpu0_L1I AVERAGE itMISS LATENCY: 0 cycles
cpu0_L1I AVERAGE dtMISS LATENCY: 0 cycles
cpu0_L1I PAGE CROSSINGS (TLB HIT):         0 
cpu0_L1I PAGE CROSSINGS (TLB MISS):         0 
cpu0_L1I AVERAGE MISS LATENCY: 13.1138 cycles
cpu0_ITLB TOTAL       ACCESS:   29083094  HIT:   27107983  MISS:    1975111  iACCESS:   29083094  iHIT:   27107983  iMISS:    1975111  dACCESS:          0  dHIT:          0  dMISS:          0  itACCESS:          0  itHIT:          0  itMISS:          0  dtACCESS:          0  dtHIT:          0  dtMISS:          0
cpu0_ITLB LOAD         ACCESS:   29083094  HIT:   27107983  MISS:    1975111  iACCESS:   29083094  iHIT:   27107983  iMISS:    1975111  dACCESS:          0  dHIT:          0  dMISS:          0  itACCESS:          0  itHIT:          0  itMISS:          0  dtACCESS:          0  dtHIT:          0  dtMISS:          0
cpu0_ITLB RFO          ACCESS:          0  HIT:          0  MISS:          0  iACCESS:          0  iHIT:          0  iMISS:          0  dACCESS:          0  dHIT:          0  dMISS:          0  itACCESS:          0  itHIT:          0  itMISS:          0  dtACCESS:          0  dtHIT:          0  dtMISS:          0
cpu0_ITLB PREFETCH     ACCESS:          0  HIT:          0  MISS:          0  iACCESS:          0  iHIT:          0  iMISS:          0  dACCESS:          0  dHIT:          0  dMISS:          0  itACCESS:          0  itHIT:          0  itMISS:          0  dtACCESS:          0  dtHIT:          0  dtMISS:          0
cpu0_ITLB WRITE        ACCESS:          0  HIT:          0  MISS:          0  iACCESS:          0  iHIT:          0  iMISS:          0  dACCESS:          0  dHIT:          0  dMISS:          0  itACCESS:          0  itHIT:          0  itMISS:          0  dtACCESS:          0  dtHIT:          0  dtMISS:          0
cpu0_ITLB TRANSLATION  ACCESS:          0  HIT:          0  MISS:          0  iACCESS:          0  iHIT:          0  iMISS:          0  dACCESS:          0  dHIT:          0  dMISS:          0  itACCESS:          0  itHIT:          0  itMISS:          0  dtACCESS:          0  dtHIT:          0  dtMISS:          0
cpu0_ITLB PREFETCH  REQUESTED:          0  ISSUED:          0  CROSSED:          0  USEFUL:     321880  USELESS:      66585
cpu0_ITLB AVERAGE iMISS LATENCY: 3.01215 cycles
cpu0_ITLB AVERAGE dMISS LATENCY: 0 cycles
cpu0_ITLB AVERAGE itMISS LATENCY: 0 cycles
cpu0_ITLB AVERAGE dtMISS LATENCY: 0 cycles
cpu0_ITLB PAGE CROSSINGS (TLB HIT):         0 
cpu0_ITLB PAGE CROSSINGS (TLB MISS):         0 
cpu0_ITLB AVERAGE MISS LATENCY: 3.01215 cycles
cpu0_DTLB TOTAL       ACCESS:   27687726  HIT:   25670103  MISS:    2017623  iACCESS:          0  iHIT:          0  iMISS:          0  dACCESS:   27687726  dHIT:   25670103  dMISS:    2017623  itACCESS:          0  itHIT:          0  itMISS:          0  dtACCESS:          0  dtHIT:          0  dtMISS:          0
cpu0_DTLB LOAD         ACCESS:   27687726  HIT:   25670103  MISS:    2017623  iACCESS:          0  iHIT:          0  iMISS:          0  dACCESS:   27687726  dHIT:   25670103  dMISS:    2017623  itACCESS:          0  itHIT:          0  itMISS:          0  dtACCESS:          0  dtHIT:          0  dtMISS:          0
cpu0_DTLB RFO          ACCESS:          0  HIT:          0  MISS:          0  iACCESS:          0  iHIT:          0  iMISS:          0  dACCESS:          0  dHIT:          0  dMISS:          0  itACCESS:          0  itHIT:          0  itMISS:          0  dtACCESS:          0  dtHIT:          0  dtMISS:          0
cpu0_DTLB PREFETCH     ACCESS:          0  HIT:          0  MISS:          0  iACCESS:          0  iHIT:          0  iMISS:          0  dACCESS:          0  dHIT:          0  dMISS:          0  itACCESS:          0  itHIT:          0  itMISS:          0  dtACCESS:          0  dtHIT:          0  dtMISS:          0
cpu0_DTLB WRITE        ACCESS:          0  HIT:          0  MISS:          0  iACCESS:          0  iHIT:          0  iMISS:          0  dACCESS:          0  dHIT:          0  dMISS:          0  itACCESS:          0  itHIT:          0  itMISS:          0  dtACCESS:          0  dtHIT:          0  dtMISS:          0
cpu0_DTLB TRANSLATION  ACCESS:          0  HIT:          0  MISS:          0  iACCESS:          0  iHIT:          0  iMISS:          0  dACCESS:          0  dHIT:          0  dMISS:          0  itACCESS:          0  itHIT:          0  itMISS:          0  dtACCESS:          0  dtHIT:          0  dtMISS:          0
cpu0_DTLB PREFETCH  REQUESTED:          0  ISSUED:          0  CROSSED:          0  USEFUL:          0  USELESS:          0
cpu0_DTLB AVERAGE iMISS LATENCY: 0 cycles
cpu0_DTLB AVERAGE dMISS LATENCY: 10.2444 cycles
cpu0_DTLB AVERAGE itMISS LATENCY: 0 cycles
cpu0_DTLB AVERAGE dtMISS LATENCY: 0 cycles
cpu0_DTLB PAGE CROSSINGS (TLB HIT):         0 
cpu0_DTLB PAGE CROSSINGS (TLB MISS):         0 
cpu0_DTLB AVERAGE MISS LATENCY: 10.2444 cycles
cpu0_STLB TOTAL       ACCESS:    1625050  HIT:    1454988  MISS:     170062  iACCESS:     388489  iHIT:     327431  iMISS:      61058  dACCESS:    1236561  dHIT:    1127557  dMISS:     109004  itACCESS:          0  itHIT:          0  itMISS:          0  dtACCESS:          0  dtHIT:          0  dtMISS:          0
cpu0_STLB LOAD         ACCESS:    1625050  HIT:    1454988  MISS:     170062  iACCESS:     388489  iHIT:     327431  iMISS:      61058  dACCESS:    1236561  dHIT:    1127557  dMISS:     109004  itACCESS:          0  itHIT:          0  itMISS:          0  dtACCESS:          0  dtHIT:          0  dtMISS:          0
cpu0_STLB RFO          ACCESS:          0  HIT:          0  MISS:          0  iACCESS:          0  iHIT:          0  iMISS:          0  dACCESS:          0  dHIT:          0  dMISS:          0  itACCESS:          0  itHIT:          0  itMISS:          0  dtACCESS:          0  dtHIT:          0  dtMISS:          0
cpu0_STLB PREFETCH     ACCESS:          0  HIT:          0  MISS:          0  iACCESS:          0  iHIT:          0  iMISS:          0  dACCESS:          0  dHIT:          0  dMISS:          0  itACCESS:          0  itHIT:          0  itMISS:          0  dtACCESS:          0  dtHIT:          0  dtMISS:          0
cpu0_STLB WRITE        ACCESS:          0  HIT:          0  MISS:          0  iACCESS:          0  iHIT:          0  iMISS:          0  dACCESS:          0  dHIT:          0  dMISS:          0  itACCESS:          0  itHIT:          0  itMISS:          0  dtACCESS:          0  dtHIT:          0  dtMISS:          0
cpu0_STLB TRANSLATION  ACCESS:          0  HIT:          0  MISS:          0  iACCESS:          0  iHIT:          0  iMISS:          0  dACCESS:          0  dHIT:          0  dMISS:          0  itACCESS:          0  itHIT:          0  itMISS:          0  dtACCESS:          0  dtHIT:          0  dtMISS:          0
cpu0_STLB PREFETCH  REQUESTED:          0  ISSUED:          0  CROSSED:          0  USEFUL:          0  USELESS:          0
cpu0_STLB AVERAGE iMISS LATENCY: 16.9295 cycles
cpu0_STLB AVERAGE dMISS LATENCY: 63.6049 cycles
cpu0_STLB AVERAGE itMISS LATENCY: 0 cycles
cpu0_STLB AVERAGE dtMISS LATENCY: 0 cycles
cpu0_STLB PAGE CROSSINGS (TLB HIT):         0 
cpu0_STLB PAGE CROSSINGS (TLB MISS):         0 
cpu0_STLB AVERAGE MISS LATENCY: 80.5343 cycles
cpu0_L1D TOTAL       ACCESS:   41352191  HIT:   37945690  MISS:    3406501  iACCESS:          0  iHIT:          0  iMISS:          0  dACCESS:   41121482  dHIT:   37924678  dMISS:    3196804  itACCESS:      66515  itHIT:       9380  itMISS:      57135  dtACCESS:     164194  dtHIT:      11632  dtMISS:     152562
cpu0_L1D LOAD         ACCESS:   18855405  HIT:   17392662  MISS:    1462743  iACCESS:          0  iHIT:          0  iMISS:          0  dACCESS:   18855405  dHIT:   17392662  dMISS:    1462743  itACCESS:          0  itHIT:          0  itMISS:          0  dtACCESS:          0  dtHIT:          0  dtMISS:          0
cpu0_L1D RFO          ACCESS:          0  HIT:          0  MISS:          0  iACCESS:          0  iHIT:          0  iMISS:          0  dACCESS:          0  dHIT:          0  dMISS:          0  itACCESS:          0  itHIT:          0  itMISS:          0  dtACCESS:          0  dtHIT:          0  dtMISS:          0
cpu0_L1D PREFETCH     ACCESS:   12077381  HIT:   10764824  MISS:    1312557  iACCESS:          0  iHIT:          0  iMISS:          0  dACCESS:   12077381  dHIT:   10764824  dMISS:    1312557  itACCESS:          0  itHIT:          0  itMISS:          0  dtACCESS:          0  dtHIT:          0  dtMISS:          0
cpu0_L1D WRITE        ACCESS:   10188696  HIT:    9767192  MISS:     421504  iACCESS:          0  iHIT:          0  iMISS:          0  dACCESS:   10188696  dHIT:    9767192  dMISS:     421504  itACCESS:          0  itHIT:          0  itMISS:          0  dtACCESS:          0  dtHIT:          0  dtMISS:          0
cpu0_L1D TRANSLATION  ACCESS:     230709  HIT:      21012  MISS:     209697  iACCESS:          0  iHIT:          0  iMISS:          0  dACCESS:          0  dHIT:          0  dMISS:          0  itACCESS:      66515  itHIT:       9380  itMISS:      57135  dtACCESS:     164194  dtHIT:      11632  dtMISS:     152562
cpu0_L1D PREFETCH  REQUESTED:   18855405  ISSUED:   16900054  CROSSED:          0  USEFUL:     304905  USELESS:     697723
cpu0_L1D AVERAGE iMISS LATENCY: 0 cycles
cpu0_L1D AVERAGE dMISS LATENCY: 32.9874 cycles
cpu0_L1D AVERAGE itMISS LATENCY: 0.690602 cycles
cpu0_L1D AVERAGE dtMISS LATENCY: 2.43645 cycles
cpu0_L1D PAGE CROSSINGS (TLB HIT):         0 
cpu0_L1D PAGE CROSSINGS (TLB MISS):         0 
cpu0_L1D AVERAGE MISS LATENCY: 36.1144 cycles
cpu0_L2C TOTAL       ACCESS:    6918950  HIT:    1681432  MISS:    5237518  iACCESS:    3284405  iHIT:     844149  iMISS:    2440256  dACCESS:    3432539  dHIT:     718010  dMISS:    2714529  itACCESS:      57135  itHIT:      41771  itMISS:      15364  dtACCESS:     144871  dtHIT:      77502  dtMISS:      67369
cpu0_L2C LOAD         ACCESS:    1716571  HIT:     303612  MISS:    1412959  iACCESS:     791579  iHIT:     149257  iMISS:     642322  dACCESS:     924992  dHIT:     154355  dMISS:     770637  itACCESS:          0  itHIT:          0  itMISS:          0  dtACCESS:          0  dtHIT:          0  dtMISS:          0
cpu0_L2C RFO          ACCESS:     157705  HIT:      54484  MISS:     103221  iACCESS:          0  iHIT:          0  iMISS:          0  dACCESS:     157705  dHIT:      54484  dMISS:     103221  itACCESS:          0  itHIT:          0  itMISS:          0  dtACCESS:          0  dtHIT:          0  dtMISS:          0
cpu0_L2C PREFETCH     ACCESS:    4560124  HIT:    1060213  MISS:    3499911  iACCESS:    2492826  iHIT:     694892  iMISS:    1797934  dACCESS:    2067298  dHIT:     365321  dMISS:    1701977  itACCESS:          0  itHIT:          0  itMISS:          0  dtACCESS:          0  dtHIT:          0  dtMISS:          0
cpu0_L2C WRITE        ACCESS:     282544  HIT:     143850  MISS:     138694  iACCESS:          0  iHIT:          0  iMISS:          0  dACCESS:     282544  dHIT:     143850  dMISS:     138694  itACCESS:          0  itHIT:          0  itMISS:          0  dtACCESS:          0  dtHIT:          0  dtMISS:          0
cpu0_L2C TRANSLATION  ACCESS:     202006  HIT:     119273  MISS:      82733  iACCESS:          0  iHIT:          0  iMISS:          0  dACCESS:          0  dHIT:          0  dMISS:          0  itACCESS:      57135  itHIT:      41771  itMISS:      15364  dtACCESS:     144871  dtHIT:      77502  dtMISS:      67369
cpu0_L2C PREFETCH  REQUESTED:    1310926  ISSUED:    1310926  CROSSED:          0  USEFUL:     381276  USELESS:     359122
cpu0_L2C AVERAGE iMISS LATENCY: 15.2159 cycles
cpu0_L2C AVERAGE dMISS LATENCY: 24.4355 cycles
cpu0_L2C AVERAGE itMISS LATENCY: 0.347841 cycles
cpu0_L2C AVERAGE dtMISS LATENCY: 1.32124 cycles
cpu0_L2C PAGE CROSSINGS (TLB HIT):         0 
cpu0_L2C PAGE CROSSINGS (TLB MISS):         0 
cpu0_L2C AVERAGE MISS LATENCY: 41.3205 cycles
LLC TOTAL       ACCESS:    5122814  HIT:    4344895  MISS:     777919  iACCESS:    2389302  iHIT:    2158607  iMISS:     230695  dACCESS:    2650779  dHIT:    2144681  dMISS:     506098  itACCESS:      15364  itHIT:       6530  itMISS:       8834  dtACCESS:      67369  dtHIT:      35077  dtMISS:      32292
LLC LOAD         ACCESS:    1411533  HIT:    1236809  MISS:     174724  iACCESS:     641427  iHIT:     591250  iMISS:      50177  dACCESS:     770106  dHIT:     645559  dMISS:     124547  itACCESS:          0  itHIT:          0  itMISS:          0  dtACCESS:          0  dtHIT:          0  dtMISS:          0
LLC RFO          ACCESS:     103214  HIT:      70167  MISS:      33047  iACCESS:          0  iHIT:          0  iMISS:          0  dACCESS:     103214  dHIT:      70167  dMISS:      33047  itACCESS:          0  itHIT:          0  itMISS:          0  dtACCESS:          0  dtHIT:          0  dtMISS:          0
LLC PREFETCH     ACCESS:    3395223  HIT:    2875003  MISS:     520220  iACCESS:    1747875  iHIT:    1567357  iMISS:     180518  dACCESS:    1647348  dHIT:    1307646  dMISS:     339702  itACCESS:          0  itHIT:          0  itMISS:          0  dtACCESS:          0  dtHIT:          0  dtMISS:          0
LLC WRITE        ACCESS:     130111  HIT:     121309  MISS:       8802  iACCESS:          0  iHIT:          0  iMISS:          0  dACCESS:     130111  dHIT:     121309  dMISS:       8802  itACCESS:          0  itHIT:          0  itMISS:          0  dtACCESS:          0  dtHIT:          0  dtMISS:          0
LLC TRANSLATION  ACCESS:      82733  HIT:      41607  MISS:      41126  iACCESS:          0  iHIT:          0  iMISS:          0  dACCESS:          0  dHIT:          0  dMISS:          0  itACCESS:      15364  itHIT:       6530  itMISS:       8834  dtACCESS:      67369  dtHIT:      35077  dtMISS:      32292
LLC PREFETCH  REQUESTED:          0  ISSUED:          0  CROSSED:          0  USEFUL:          0  USELESS:          0
LLC AVERAGE iMISS LATENCY: 43.2122 cycles
LLC AVERAGE dMISS LATENCY: 101.872 cycles
LLC AVERAGE itMISS LATENCY: 1.95593 cycles
LLC AVERAGE dtMISS LATENCY: 7.2093 cycles
LLC PAGE CROSSINGS (TLB HIT):         0 
LLC PAGE CROSSINGS (TLB MISS):         0 
LLC AVERAGE MISS LATENCY: 154.25 cycles

PageTableWalker TOTAL       ACCESS:      85029  
PageTableWalker AVERAGE LATENCY: 4.59388 cycles
PageTableWalker TOTAL LATENCY: 390613 cycles

DRAM Statistics
Channel 0
 RQ ROW_BUFFER_HIT:     220236
  ROW_BUFFER_MISS:     548829
 AVG DBUS CONGESTED CYCLE:    3.61813
 WQ ROW_BUFFER_HIT:      14900
  ROW_BUFFER_MISS:      19907  FULL:          0

