last_page:0x200000000000000
VMEM_RES_CAP:0x100000
PAGE_SIZE:4096
LOG2_PAGE_SIZE:12
LOG2_PAGE_TABLE_SIZE:9
page_table_levels:5
WARNING: physical memory size is smaller than virtual memory size
FDiP enabled with aggresivity 16

*** ChampSim Multicore Out-of-Order Simulator ***

Warmup Instructions: 50000000
Simulation Instructions: 100000000
Number of CPUs: 1
Small page size: 4096
Large page size: 2097152

CPU 0 Bimodal branch predictor
Basic BTB sets: 1024 ways: 8 indirect buffer size: 4096 RAS size: 64
Instruction page size distrubution: 0
Loading instruction page size distribution from /home/bsc/bsc018186/scratch/itp_asplos25_AE/dump/srv495_ap.pdst
Data page size distrubution: 0
Loading data page size distribution from /home/bsc/bsc018186/scratch/itp_asplos25_AE/dump/srv495_ap.pdst
cpu0_L2C IP-based stride prefetcher
cpu0_L1D next line prefetcher
cpu0_STLB using iTP with max lru@8
cpu0_STLB using iTP with instr@0 and data@2
Init sat counter with 3 bits (max:50).
cpu0_L1I next line prefetcher
Off-chip DRAM Size: 4 GiB Channels: 1 Width: 64-bit Data Rate: 3200 MT/s
Heartbeat CPU 0 instructions: 10000002 cycles: 2500227 heartbeat IPC: 3.99964 cumulative IPC: 3.99964 (Simulation time: 0 hr 0 min 38 sec) 
Heartbeat CPU 0 instructions: 20000001 cycles: 5000230 heartbeat IPC: 4 cumulative IPC: 3.99982 (Simulation time: 0 hr 1 min 18 sec) 
Heartbeat CPU 0 instructions: 30000002 cycles: 7500292 heartbeat IPC: 3.99991 cumulative IPC: 3.99985 (Simulation time: 0 hr 1 min 59 sec) 
Heartbeat CPU 0 instructions: 40000001 cycles: 10000293 heartbeat IPC: 4 cumulative IPC: 3.99989 (Simulation time: 0 hr 2 min 39 sec) 
Heartbeat CPU 0 instructions: 50000002 cycles: 12500305 heartbeat IPC: 3.99999 cumulative IPC: 3.99991 (Simulation time: 0 hr 3 min 20 sec) 
Warmup finished CPU 0 instructions: 50000002 cycles: 12500306 cumulative IPC: 3.99991 (Simulation time: 0 hr 3 min 20 sec) 

Warmup complete CPU 0 instructions: 50000002 cycles: 12500306 (Simulation time: 0 hr 3 min 20 sec) 

Heartbeat CPU 0 instructions: 60000000 cycles: 32858845 heartbeat IPC: 0.491195 cumulative IPC: 0.491195 (Simulation time: 0 hr 4 min 30 sec) 
Heartbeat CPU 0 instructions: 70000000 cycles: 53436952 heartbeat IPC: 0.485954 cumulative IPC: 0.48856 (Simulation time: 0 hr 5 min 42 sec) 
Heartbeat CPU 0 instructions: 80000001 cycles: 73583963 heartbeat IPC: 0.496352 cumulative IPC: 0.49113 (Simulation time: 0 hr 6 min 53 sec) 
Heartbeat CPU 0 instructions: 90000000 cycles: 93351397 heartbeat IPC: 0.505883 cumulative IPC: 0.494737 (Simulation time: 0 hr 8 min 3 sec) 
Heartbeat CPU 0 instructions: 100000004 cycles: 113368697 heartbeat IPC: 0.499569 cumulative IPC: 0.495696 (Simulation time: 0 hr 9 min 13 sec) 
*** Reached end of trace: /gpfs/projects/bsc18/MN4/bsc18/romol/ChampSim/traces/qualcomm_srv/srv495_ap.champsimtrace.xz
Heartbeat CPU 0 instructions: 110000004 cycles: 133525151 heartbeat IPC: 0.49612 cumulative IPC: 0.495766 (Simulation time: 0 hr 10 min 24 sec) 
Heartbeat CPU 0 instructions: 120000004 cycles: 154434495 heartbeat IPC: 0.478256 cumulative IPC: 0.493187 (Simulation time: 0 hr 11 min 36 sec) 
Heartbeat CPU 0 instructions: 130000001 cycles: 175008309 heartbeat IPC: 0.486055 cumulative IPC: 0.492284 (Simulation time: 0 hr 12 min 48 sec) 
Heartbeat CPU 0 instructions: 140000002 cycles: 195725385 heartbeat IPC: 0.482694 cumulative IPC: 0.4912 (Simulation time: 0 hr 13 min 59 sec) 
Heartbeat CPU 0 instructions: 150000002 cycles: 216929158 heartbeat IPC: 0.471615 cumulative IPC: 0.489168 (Simulation time: 0 hr 15 min 12 sec) 
Simulation finished CPU 0 instructions: 100000000 cycles: 204428853 cumulative IPC: 0.489168 (Simulation time: 0 hr 15 min 12 sec) 

Simulation complete CPU 0 instructions: 100000000 cycles: 204428853 (Simulation time: 0 hr 15 min 12 sec) 


ChampSim completed all CPUs

Saving instructions large page distribution to /home/bsc/bsc018186/scratch/itp_asplos25_AE/dump/srv495_ap.pdst...
Saving data large page distribution to /home/bsc/bsc018186/scratch/itp_asplos25_AE/dump/srv495_ap.pdst...
=== Simulation ===
CPU 0 runs /gpfs/projects/bsc18/MN4/bsc18/romol/ChampSim/traces/qualcomm_srv/srv495_ap.champsimtrace.xz

Region of Interest Statistics

CPU 0 cumulative IPC: 0.489168 instructions: 100000000 cycles: 204428853
CPU 0 Branch Prediction Accuracy: 80.2549% MPKI: 35.6076 Average ROB Occupancy at Mispredict: 10.9619
Branch type MPKI
BRANCH_DIRECT_JUMP: 1.32006
BRANCH_INDIRECT: 17.7862
BRANCH_CONDITIONAL: 11.5962
BRANCH_DIRECT_CALL: 2.47778
BRANCH_INDIRECT_CALL: 0.692951
BRANCH_RETURN: 1.73448

Instructions large pages: 0
Instructions small pages: 1075
Large page distribution for instructions: 0%

Data large pages: 0
Data small pages: 4728
Large page distribution for data: 0%

cpu0_L1I TOTAL       ACCESS:   35305271  HIT:   27456988  MISS:    7848283  iACCESS:   35305271  iHIT:   27456988  iMISS:    7848283  dACCESS:          0  dHIT:          0  dMISS:          0  itACCESS:          0  itHIT:          0  itMISS:          0  dtACCESS:          0  dtHIT:          0  dtMISS:          0
cpu0_L1I LOAD         ACCESS:   10180380  HIT:    8027868  MISS:    2152512  iACCESS:   10180380  iHIT:    8027868  iMISS:    2152512  dACCESS:          0  dHIT:          0  dMISS:          0  itACCESS:          0  itHIT:          0  itMISS:          0  dtACCESS:          0  dtHIT:          0  dtMISS:          0
cpu0_L1I RFO          ACCESS:          0  HIT:          0  MISS:          0  iACCESS:          0  iHIT:          0  iMISS:          0  dACCESS:          0  dHIT:          0  dMISS:          0  itACCESS:          0  itHIT:          0  itMISS:          0  dtACCESS:          0  dtHIT:          0  dtMISS:          0
cpu0_L1I PREFETCH     ACCESS:   25124891  HIT:   19429120  MISS:    5695771  iACCESS:   25124891  iHIT:   19429120  iMISS:    5695771  dACCESS:          0  dHIT:          0  dMISS:          0  itACCESS:          0  itHIT:          0  itMISS:          0  dtACCESS:          0  dtHIT:          0  dtMISS:          0
cpu0_L1I WRITE        ACCESS:          0  HIT:          0  MISS:          0  iACCESS:          0  iHIT:          0  iMISS:          0  dACCESS:          0  dHIT:          0  dMISS:          0  itACCESS:          0  itHIT:          0  itMISS:          0  dtACCESS:          0  dtHIT:          0  dtMISS:          0
cpu0_L1I TRANSLATION  ACCESS:          0  HIT:          0  MISS:          0  iACCESS:          0  iHIT:          0  iMISS:          0  dACCESS:          0  dHIT:          0  dMISS:          0  itACCESS:          0  itHIT:          0  itMISS:          0  dtACCESS:          0  dtHIT:          0  dtMISS:          0
cpu0_L1I PREFETCH  REQUESTED:   27517809  ISSUED:   27517809  CROSSED:          0  USEFUL:    1972537  USELESS:     653015
cpu0_L1I AVERAGE iMISS LATENCY: 19.7358 cycles
cpu0_L1I AVERAGE dMISS LATENCY: 0 cycles
cpu0_L1I AVERAGE itMISS LATENCY: 0 cycles
cpu0_L1I AVERAGE dtMISS LATENCY: 0 cycles
cpu0_L1I PAGE CROSSINGS (TLB HIT):         0 
cpu0_L1I PAGE CROSSINGS (TLB MISS):         0 
cpu0_L1I AVERAGE MISS LATENCY: 19.7358 cycles
cpu0_ITLB TOTAL       ACCESS:   29797072  HIT:   27852347  MISS:    1944725  iACCESS:   29797072  iHIT:   27852347  iMISS:    1944725  dACCESS:          0  dHIT:          0  dMISS:          0  itACCESS:          0  itHIT:          0  itMISS:          0  dtACCESS:          0  dtHIT:          0  dtMISS:          0
cpu0_ITLB LOAD         ACCESS:   29797072  HIT:   27852347  MISS:    1944725  iACCESS:   29797072  iHIT:   27852347  iMISS:    1944725  dACCESS:          0  dHIT:          0  dMISS:          0  itACCESS:          0  itHIT:          0  itMISS:          0  dtACCESS:          0  dtHIT:          0  dtMISS:          0
cpu0_ITLB RFO          ACCESS:          0  HIT:          0  MISS:          0  iACCESS:          0  iHIT:          0  iMISS:          0  dACCESS:          0  dHIT:          0  dMISS:          0  itACCESS:          0  itHIT:          0  itMISS:          0  dtACCESS:          0  dtHIT:          0  dtMISS:          0
cpu0_ITLB PREFETCH     ACCESS:          0  HIT:          0  MISS:          0  iACCESS:          0  iHIT:          0  iMISS:          0  dACCESS:          0  dHIT:          0  dMISS:          0  itACCESS:          0  itHIT:          0  itMISS:          0  dtACCESS:          0  dtHIT:          0  dtMISS:          0
cpu0_ITLB WRITE        ACCESS:          0  HIT:          0  MISS:          0  iACCESS:          0  iHIT:          0  iMISS:          0  dACCESS:          0  dHIT:          0  dMISS:          0  itACCESS:          0  itHIT:          0  itMISS:          0  dtACCESS:          0  dtHIT:          0  dtMISS:          0
cpu0_ITLB TRANSLATION  ACCESS:          0  HIT:          0  MISS:          0  iACCESS:          0  iHIT:          0  iMISS:          0  dACCESS:          0  dHIT:          0  dMISS:          0  itACCESS:          0  itHIT:          0  itMISS:          0  dtACCESS:          0  dtHIT:          0  dtMISS:          0
cpu0_ITLB PREFETCH  REQUESTED:          0  ISSUED:          0  CROSSED:          0  USEFUL:     329812  USELESS:      61836
cpu0_ITLB AVERAGE iMISS LATENCY: 3.45287 cycles
cpu0_ITLB AVERAGE dMISS LATENCY: 0 cycles
cpu0_ITLB AVERAGE itMISS LATENCY: 0 cycles
cpu0_ITLB AVERAGE dtMISS LATENCY: 0 cycles
cpu0_ITLB PAGE CROSSINGS (TLB HIT):         0 
cpu0_ITLB PAGE CROSSINGS (TLB MISS):         0 
cpu0_ITLB AVERAGE MISS LATENCY: 3.45287 cycles
cpu0_DTLB TOTAL       ACCESS:   27963909  HIT:   25996196  MISS:    1967713  iACCESS:          0  iHIT:          0  iMISS:          0  dACCESS:   27963909  dHIT:   25996196  dMISS:    1967713  itACCESS:          0  itHIT:          0  itMISS:          0  dtACCESS:          0  dtHIT:          0  dtMISS:          0
cpu0_DTLB LOAD         ACCESS:   27963909  HIT:   25996196  MISS:    1967713  iACCESS:          0  iHIT:          0  iMISS:          0  dACCESS:   27963909  dHIT:   25996196  dMISS:    1967713  itACCESS:          0  itHIT:          0  itMISS:          0  dtACCESS:          0  dtHIT:          0  dtMISS:          0
cpu0_DTLB RFO          ACCESS:          0  HIT:          0  MISS:          0  iACCESS:          0  iHIT:          0  iMISS:          0  dACCESS:          0  dHIT:          0  dMISS:          0  itACCESS:          0  itHIT:          0  itMISS:          0  dtACCESS:          0  dtHIT:          0  dtMISS:          0
cpu0_DTLB PREFETCH     ACCESS:          0  HIT:          0  MISS:          0  iACCESS:          0  iHIT:          0  iMISS:          0  dACCESS:          0  dHIT:          0  dMISS:          0  itACCESS:          0  itHIT:          0  itMISS:          0  dtACCESS:          0  dtHIT:          0  dtMISS:          0
cpu0_DTLB WRITE        ACCESS:          0  HIT:          0  MISS:          0  iACCESS:          0  iHIT:          0  iMISS:          0  dACCESS:          0  dHIT:          0  dMISS:          0  itACCESS:          0  itHIT:          0  itMISS:          0  dtACCESS:          0  dtHIT:          0  dtMISS:          0
cpu0_DTLB TRANSLATION  ACCESS:          0  HIT:          0  MISS:          0  iACCESS:          0  iHIT:          0  iMISS:          0  dACCESS:          0  dHIT:          0  dMISS:          0  itACCESS:          0  itHIT:          0  itMISS:          0  dtACCESS:          0  dtHIT:          0  dtMISS:          0
cpu0_DTLB PREFETCH  REQUESTED:          0  ISSUED:          0  CROSSED:          0  USEFUL:          0  USELESS:          0
cpu0_DTLB AVERAGE iMISS LATENCY: 0 cycles
cpu0_DTLB AVERAGE dMISS LATENCY: 24.1559 cycles
cpu0_DTLB AVERAGE itMISS LATENCY: 0 cycles
cpu0_DTLB AVERAGE dtMISS LATENCY: 0 cycles
cpu0_DTLB PAGE CROSSINGS (TLB HIT):         0 
cpu0_DTLB PAGE CROSSINGS (TLB MISS):         0 
cpu0_DTLB AVERAGE MISS LATENCY: 24.1559 cycles
cpu0_STLB TOTAL       ACCESS:    1611218  HIT:    1399756  MISS:     211462  iACCESS:     391651  iHIT:     370727  iMISS:      20924  dACCESS:    1219567  dHIT:    1029029  dMISS:     190538  itACCESS:          0  itHIT:          0  itMISS:          0  dtACCESS:          0  dtHIT:          0  dtMISS:          0
cpu0_STLB LOAD         ACCESS:    1611218  HIT:    1399756  MISS:     211462  iACCESS:     391651  iHIT:     370727  iMISS:      20924  dACCESS:    1219567  dHIT:    1029029  dMISS:     190538  itACCESS:          0  itHIT:          0  itMISS:          0  dtACCESS:          0  dtHIT:          0  dtMISS:          0
cpu0_STLB RFO          ACCESS:          0  HIT:          0  MISS:          0  iACCESS:          0  iHIT:          0  iMISS:          0  dACCESS:          0  dHIT:          0  dMISS:          0  itACCESS:          0  itHIT:          0  itMISS:          0  dtACCESS:          0  dtHIT:          0  dtMISS:          0
cpu0_STLB PREFETCH     ACCESS:          0  HIT:          0  MISS:          0  iACCESS:          0  iHIT:          0  iMISS:          0  dACCESS:          0  dHIT:          0  dMISS:          0  itACCESS:          0  itHIT:          0  itMISS:          0  dtACCESS:          0  dtHIT:          0  dtMISS:          0
cpu0_STLB WRITE        ACCESS:          0  HIT:          0  MISS:          0  iACCESS:          0  iHIT:          0  iMISS:          0  dACCESS:          0  dHIT:          0  dMISS:          0  itACCESS:          0  itHIT:          0  itMISS:          0  dtACCESS:          0  dtHIT:          0  dtMISS:          0
cpu0_STLB TRANSLATION  ACCESS:          0  HIT:          0  MISS:          0  iACCESS:          0  iHIT:          0  iMISS:          0  dACCESS:          0  dHIT:          0  dMISS:          0  itACCESS:          0  itHIT:          0  itMISS:          0  dtACCESS:          0  dtHIT:          0  dtMISS:          0
cpu0_STLB PREFETCH  REQUESTED:          0  ISSUED:          0  CROSSED:          0  USEFUL:          0  USELESS:          0
cpu0_STLB AVERAGE iMISS LATENCY: 17.3122 cycles
cpu0_STLB AVERAGE dMISS LATENCY: 178.415 cycles
cpu0_STLB AVERAGE itMISS LATENCY: 0 cycles
cpu0_STLB AVERAGE dtMISS LATENCY: 0 cycles
cpu0_STLB PAGE CROSSINGS (TLB HIT):         0 
cpu0_STLB PAGE CROSSINGS (TLB MISS):         0 
cpu0_STLB AVERAGE MISS LATENCY: 195.727 cycles
cpu0_L1D TOTAL       ACCESS:   42747349  HIT:   38383221  MISS:    4364128  iACCESS:          0  iHIT:          0  iMISS:          0  dACCESS:   42462668  dHIT:   38365889  dMISS:    4096779  itACCESS:      24138  itHIT:       1780  itMISS:      22358  dtACCESS:     260543  dtHIT:      15552  dtMISS:     244991
cpu0_L1D LOAD         ACCESS:   19462645  HIT:   17586954  MISS:    1875691  iACCESS:          0  iHIT:          0  iMISS:          0  dACCESS:   19462645  dHIT:   17586954  dMISS:    1875691  itACCESS:          0  itHIT:          0  itMISS:          0  dtACCESS:          0  dtHIT:          0  dtMISS:          0
cpu0_L1D RFO          ACCESS:          0  HIT:          0  MISS:          0  iACCESS:          0  iHIT:          0  iMISS:          0  dACCESS:          0  dHIT:          0  dMISS:          0  itACCESS:          0  itHIT:          0  itMISS:          0  dtACCESS:          0  dtHIT:          0  dtMISS:          0
cpu0_L1D PREFETCH     ACCESS:   12837377  HIT:   11098071  MISS:    1739306  iACCESS:          0  iHIT:          0  iMISS:          0  dACCESS:   12837377  dHIT:   11098071  dMISS:    1739306  itACCESS:          0  itHIT:          0  itMISS:          0  dtACCESS:          0  dtHIT:          0  dtMISS:          0
cpu0_L1D WRITE        ACCESS:   10162646  HIT:    9680864  MISS:     481782  iACCESS:          0  iHIT:          0  iMISS:          0  dACCESS:   10162646  dHIT:    9680864  dMISS:     481782  itACCESS:          0  itHIT:          0  itMISS:          0  dtACCESS:          0  dtHIT:          0  dtMISS:          0
cpu0_L1D TRANSLATION  ACCESS:     284681  HIT:      17332  MISS:     267349  iACCESS:          0  iHIT:          0  iMISS:          0  dACCESS:          0  dHIT:          0  dMISS:          0  itACCESS:      24138  itHIT:       1780  itMISS:      22358  dtACCESS:     260543  dtHIT:      15552  dtMISS:     244991
cpu0_L1D PREFETCH  REQUESTED:   19462645  ISSUED:   17243657  CROSSED:          0  USEFUL:     310415  USELESS:     707576
cpu0_L1D AVERAGE iMISS LATENCY: 0 cycles
cpu0_L1D AVERAGE dMISS LATENCY: 39.3692 cycles
cpu0_L1D AVERAGE itMISS LATENCY: 0.790391 cycles
cpu0_L1D AVERAGE dtMISS LATENCY: 8.06387 cycles
cpu0_L1D PAGE CROSSINGS (TLB HIT):         0 
cpu0_L1D PAGE CROSSINGS (TLB MISS):         0 
cpu0_L1D AVERAGE MISS LATENCY: 48.2234 cycles
cpu0_L2C TOTAL       ACCESS:    7273708  HIT:    3699187  MISS:    3574521  iACCESS:    3353896  iHIT:    2020610  iMISS:    1333286  dACCESS:    3657575  dHIT:    1636340  dMISS:    2021235  itACCESS:      22358  itHIT:       3135  itMISS:      19223  dtACCESS:     239879  dtHIT:      39102  dtMISS:     200777
cpu0_L2C LOAD         ACCESS:    1722008  HIT:     914193  MISS:     807815  iACCESS:     766417  iHIT:     492086  iMISS:     274331  dACCESS:     955591  dHIT:     422107  dMISS:     533484  itACCESS:          0  itHIT:          0  itMISS:          0  dtACCESS:          0  dtHIT:          0  dtMISS:          0
cpu0_L2C RFO          ACCESS:     164882  HIT:      62734  MISS:     102148  iACCESS:          0  iHIT:          0  iMISS:          0  dACCESS:     164882  dHIT:      62734  dMISS:     102148  itACCESS:          0  itHIT:          0  itMISS:          0  dtACCESS:          0  dtHIT:          0  dtMISS:          0
cpu0_L2C PREFETCH     ACCESS:    4848545  HIT:    2405364  MISS:    2443181  iACCESS:    2587479  iHIT:    1528524  iMISS:    1058955  dACCESS:    2261066  dHIT:     876840  dMISS:    1384226  itACCESS:          0  itHIT:          0  itMISS:          0  dtACCESS:          0  dtHIT:          0  dtMISS:          0
cpu0_L2C WRITE        ACCESS:     276036  HIT:     274659  MISS:       1377  iACCESS:          0  iHIT:          0  iMISS:          0  dACCESS:     276036  dHIT:     274659  dMISS:       1377  itACCESS:          0  itHIT:          0  itMISS:          0  dtACCESS:          0  dtHIT:          0  dtMISS:          0
cpu0_L2C TRANSLATION  ACCESS:     262237  HIT:      42237  MISS:     220000  iACCESS:          0  iHIT:          0  iMISS:          0  dACCESS:          0  dHIT:          0  dMISS:          0  itACCESS:      22358  itHIT:       3135  itMISS:      19223  dtACCESS:     239879  dtHIT:      39102  dtMISS:     200777
cpu0_L2C PREFETCH  REQUESTED:    1498866  ISSUED:    1498866  CROSSED:          0  USEFUL:     359111  USELESS:     303058
cpu0_L2C AVERAGE iMISS LATENCY: 35.0675 cycles
cpu0_L2C AVERAGE dMISS LATENCY: 61.9605 cycles
cpu0_L2C AVERAGE itMISS LATENCY: 0.903081 cycles
cpu0_L2C AVERAGE dtMISS LATENCY: 9.18081 cycles
cpu0_L2C PAGE CROSSINGS (TLB HIT):         0 
cpu0_L2C PAGE CROSSINGS (TLB MISS):         0 
cpu0_L2C AVERAGE MISS LATENCY: 107.112 cycles
LLC TOTAL       ACCESS:    3537512  HIT:    1570994  MISS:    1966518  iACCESS:    1253815  iHIT:     572147  iMISS:     681668  dACCESS:    2063697  dHIT:     948810  dMISS:    1114887  itACCESS:      19223  itHIT:       3049  itMISS:      16174  dtACCESS:     200777  dtHIT:      46988  dtMISS:     153789
LLC LOAD         ACCESS:     802159  HIT:     378797  MISS:     423362  iACCESS:     273213  iHIT:     130576  iMISS:     142637  dACCESS:     528946  dHIT:     248221  dMISS:     280725  itACCESS:          0  itHIT:          0  itMISS:          0  dtACCESS:          0  dtHIT:          0  dtMISS:          0
LLC RFO          ACCESS:     102141  HIT:      39572  MISS:      62569  iACCESS:          0  iHIT:          0  iMISS:          0  dACCESS:     102141  dHIT:      39572  dMISS:      62569  itACCESS:          0  itHIT:          0  itMISS:          0  dtACCESS:          0  dtHIT:          0  dtMISS:          0
LLC PREFETCH     ACCESS:    2264140  HIT:     962468  MISS:    1301672  iACCESS:     980602  iHIT:     441571  iMISS:     539031  dACCESS:    1283538  dHIT:     520897  dMISS:     762641  itACCESS:          0  itHIT:          0  itMISS:          0  dtACCESS:          0  dtHIT:          0  dtMISS:          0
LLC WRITE        ACCESS:     149072  HIT:     140120  MISS:       8952  iACCESS:          0  iHIT:          0  iMISS:          0  dACCESS:     149072  dHIT:     140120  dMISS:       8952  itACCESS:          0  itHIT:          0  itMISS:          0  dtACCESS:          0  dtHIT:          0  dtMISS:          0
LLC TRANSLATION  ACCESS:     220000  HIT:      50037  MISS:     169963  iACCESS:          0  iHIT:          0  iMISS:          0  dACCESS:          0  dHIT:          0  dMISS:          0  itACCESS:      19223  itHIT:       3049  itMISS:      16174  dtACCESS:     200777  dtHIT:      46988  dtMISS:     153789
LLC PREFETCH  REQUESTED:          0  ISSUED:          0  CROSSED:          0  USEFUL:          0  USELESS:          0
LLC AVERAGE iMISS LATENCY: 51.2702 cycles
LLC AVERAGE dMISS LATENCY: 94.6981 cycles
LLC AVERAGE itMISS LATENCY: 1.44826 cycles
LLC AVERAGE dtMISS LATENCY: 14.6782 cycles
LLC PAGE CROSSINGS (TLB HIT):         0 
LLC PAGE CROSSINGS (TLB MISS):         0 
LLC AVERAGE MISS LATENCY: 162.095 cycles

PageTableWalker TOTAL       ACCESS:     100253  
PageTableWalker AVERAGE LATENCY: 5.33814 cycles
PageTableWalker TOTAL LATENCY: 535164 cycles

DRAM Statistics
Channel 0
 RQ ROW_BUFFER_HIT:     544332
  ROW_BUFFER_MISS:    1399599
 AVG DBUS CONGESTED CYCLE:     3.6319
 WQ ROW_BUFFER_HIT:      39077
  ROW_BUFFER_MISS:      26664  FULL:          0

