last_page:0x200000000000000
VMEM_RES_CAP:0x100000
PAGE_SIZE:4096
LOG2_PAGE_SIZE:12
LOG2_PAGE_TABLE_SIZE:9
page_table_levels:5
WARNING: physical memory size is smaller than virtual memory size
FDiP enabled with aggresivity 16

*** ChampSim Multicore Out-of-Order Simulator ***

Warmup Instructions: 50000000
Simulation Instructions: 100000000
Number of CPUs: 1
Small page size: 4096
Large page size: 2097152

CPU 0 Bimodal branch predictor
Basic BTB sets: 1024 ways: 8 indirect buffer size: 4096 RAS size: 64
Instruction page size distrubution: 0
Loading instruction page size distribution from /home/bsc/bsc018186/scratch/itp_asplos25_AE/dump/srv401_ap.pdst
Data page size distrubution: 0
Loading data page size distribution from /home/bsc/bsc018186/scratch/itp_asplos25_AE/dump/srv401_ap.pdst
cpu0_L2C IP-based stride prefetcher
cpu0_L1D next line prefetcher
CHiRPing...
cpu0_L1I next line prefetcher
Off-chip DRAM Size: 4 GiB Channels: 1 Width: 64-bit Data Rate: 3200 MT/s
Heartbeat CPU 0 instructions: 10000003 cycles: 2500193 heartbeat IPC: 3.9997 cumulative IPC: 3.9997 (Simulation time: 0 hr 0 min 38 sec) 
Heartbeat CPU 0 instructions: 20000003 cycles: 5000193 heartbeat IPC: 4 cumulative IPC: 3.99985 (Simulation time: 0 hr 1 min 19 sec) 
Heartbeat CPU 0 instructions: 30000003 cycles: 7500193 heartbeat IPC: 4 cumulative IPC: 3.9999 (Simulation time: 0 hr 2 min 0 sec) 
Heartbeat CPU 0 instructions: 40000003 cycles: 10000295 heartbeat IPC: 3.99984 cumulative IPC: 3.99989 (Simulation time: 0 hr 2 min 41 sec) 
Heartbeat CPU 0 instructions: 50000002 cycles: 12500301 heartbeat IPC: 4 cumulative IPC: 3.99991 (Simulation time: 0 hr 3 min 23 sec) 
Warmup finished CPU 0 instructions: 50000002 cycles: 12500302 cumulative IPC: 3.99991 (Simulation time: 0 hr 3 min 23 sec) 

Warmup complete CPU 0 instructions: 50000002 cycles: 12500302 (Simulation time: 0 hr 3 min 23 sec) 

Heartbeat CPU 0 instructions: 60000003 cycles: 27350429 heartbeat IPC: 0.673395 cumulative IPC: 0.673395 (Simulation time: 0 hr 4 min 29 sec) 
Heartbeat CPU 0 instructions: 70000002 cycles: 41035694 heartbeat IPC: 0.730713 cumulative IPC: 0.700885 (Simulation time: 0 hr 5 min 33 sec) 
Heartbeat CPU 0 instructions: 80000001 cycles: 56126598 heartbeat IPC: 0.662651 cumulative IPC: 0.687659 (Simulation time: 0 hr 6 min 39 sec) 
Heartbeat CPU 0 instructions: 90000003 cycles: 70462794 heartbeat IPC: 0.697536 cumulative IPC: 0.690102 (Simulation time: 0 hr 7 min 45 sec) 
Heartbeat CPU 0 instructions: 100000000 cycles: 84865306 heartbeat IPC: 0.694324 cumulative IPC: 0.690942 (Simulation time: 0 hr 8 min 50 sec) 
*** Reached end of trace: /gpfs/projects/bsc18/MN4/bsc18/romol/ChampSim/traces/qualcomm_srv/srv401_ap.champsimtrace.xz
Heartbeat CPU 0 instructions: 110000004 cycles: 99771272 heartbeat IPC: 0.670873 cumulative IPC: 0.687514 (Simulation time: 0 hr 9 min 56 sec) 
Heartbeat CPU 0 instructions: 120000003 cycles: 113142178 heartbeat IPC: 0.747893 cumulative IPC: 0.695536 (Simulation time: 0 hr 11 min 0 sec) 
Heartbeat CPU 0 instructions: 130000004 cycles: 126643092 heartbeat IPC: 0.740691 cumulative IPC: 0.700877 (Simulation time: 0 hr 12 min 5 sec) 
Heartbeat CPU 0 instructions: 140000003 cycles: 140005223 heartbeat IPC: 0.748384 cumulative IPC: 0.705856 (Simulation time: 0 hr 13 min 9 sec) 
Heartbeat CPU 0 instructions: 150000001 cycles: 153371597 heartbeat IPC: 0.748146 cumulative IPC: 0.709868 (Simulation time: 0 hr 14 min 12 sec) 
Simulation finished CPU 0 instructions: 100000004 cycles: 140871297 cumulative IPC: 0.709868 (Simulation time: 0 hr 14 min 12 sec) 

Simulation complete CPU 0 instructions: 100000004 cycles: 140871297 (Simulation time: 0 hr 14 min 12 sec) 


ChampSim completed all CPUs

Saving instructions large page distribution to /home/bsc/bsc018186/scratch/itp_asplos25_AE/dump/srv401_ap.pdst...
Saving data large page distribution to /home/bsc/bsc018186/scratch/itp_asplos25_AE/dump/srv401_ap.pdst...
=== Simulation ===
CPU 0 runs /gpfs/projects/bsc18/MN4/bsc18/romol/ChampSim/traces/qualcomm_srv/srv401_ap.champsimtrace.xz

Region of Interest Statistics

CPU 0 cumulative IPC: 0.709868 instructions: 100000004 cycles: 140871297
CPU 0 Branch Prediction Accuracy: 83.2172% MPKI: 30.0396 Average ROB Occupancy at Mispredict: 13.0496
Branch type MPKI
BRANCH_DIRECT_JUMP: 1.01862
BRANCH_INDIRECT: 15.6871
BRANCH_CONDITIONAL: 9.67775
BRANCH_DIRECT_CALL: 1.82815
BRANCH_INDIRECT_CALL: 0.50017
BRANCH_RETURN: 1.32778

Instructions large pages: 0
Instructions small pages: 1046
Large page distribution for instructions: 0%

Data large pages: 0
Data small pages: 10425
Large page distribution for data: 0%

cpu0_L1I TOTAL       ACCESS:   35265128  HIT:   26984181  MISS:    8280947  iACCESS:   35265128  iHIT:   26984181  iMISS:    8280947  dACCESS:          0  dHIT:          0  dMISS:          0  itACCESS:          0  itHIT:          0  itMISS:          0  dtACCESS:          0  dtHIT:          0  dtMISS:          0
cpu0_L1I LOAD         ACCESS:   10361207  HIT:    8037802  MISS:    2323405  iACCESS:   10361207  iHIT:    8037802  iMISS:    2323405  dACCESS:          0  dHIT:          0  dMISS:          0  itACCESS:          0  itHIT:          0  itMISS:          0  dtACCESS:          0  dtHIT:          0  dtMISS:          0
cpu0_L1I RFO          ACCESS:          0  HIT:          0  MISS:          0  iACCESS:          0  iHIT:          0  iMISS:          0  dACCESS:          0  dHIT:          0  dMISS:          0  itACCESS:          0  itHIT:          0  itMISS:          0  dtACCESS:          0  dtHIT:          0  dtMISS:          0
cpu0_L1I PREFETCH     ACCESS:   24903921  HIT:   18946379  MISS:    5957542  iACCESS:   24903921  iHIT:   18946379  iMISS:    5957542  dACCESS:          0  dHIT:          0  dMISS:          0  itACCESS:          0  itHIT:          0  itMISS:          0  dtACCESS:          0  dtHIT:          0  dtMISS:          0
cpu0_L1I WRITE        ACCESS:          0  HIT:          0  MISS:          0  iACCESS:          0  iHIT:          0  iMISS:          0  dACCESS:          0  dHIT:          0  dMISS:          0  itACCESS:          0  itHIT:          0  itMISS:          0  dtACCESS:          0  dtHIT:          0  dtMISS:          0
cpu0_L1I TRANSLATION  ACCESS:          0  HIT:          0  MISS:          0  iACCESS:          0  iHIT:          0  iMISS:          0  dACCESS:          0  dHIT:          0  dMISS:          0  itACCESS:          0  itHIT:          0  itMISS:          0  dtACCESS:          0  dtHIT:          0  dtMISS:          0
cpu0_L1I PREFETCH  REQUESTED:   27278656  ISSUED:   27276643  CROSSED:          0  USEFUL:    1893714  USELESS:     622781
cpu0_L1I AVERAGE iMISS LATENCY: 13.3784 cycles
cpu0_L1I AVERAGE dMISS LATENCY: 0 cycles
cpu0_L1I AVERAGE itMISS LATENCY: 0 cycles
cpu0_L1I AVERAGE dtMISS LATENCY: 0 cycles
cpu0_L1I PAGE CROSSINGS (TLB HIT):         0 
cpu0_L1I PAGE CROSSINGS (TLB MISS):         0 
cpu0_L1I AVERAGE MISS LATENCY: 13.3784 cycles
cpu0_ITLB TOTAL       ACCESS:   29170033  HIT:   27203365  MISS:    1966668  iACCESS:   29170033  iHIT:   27203365  iMISS:    1966668  dACCESS:          0  dHIT:          0  dMISS:          0  itACCESS:          0  itHIT:          0  itMISS:          0  dtACCESS:          0  dtHIT:          0  dtMISS:          0
cpu0_ITLB LOAD         ACCESS:   29170033  HIT:   27203365  MISS:    1966668  iACCESS:   29170033  iHIT:   27203365  iMISS:    1966668  dACCESS:          0  dHIT:          0  dMISS:          0  itACCESS:          0  itHIT:          0  itMISS:          0  dtACCESS:          0  dtHIT:          0  dtMISS:          0
cpu0_ITLB RFO          ACCESS:          0  HIT:          0  MISS:          0  iACCESS:          0  iHIT:          0  iMISS:          0  dACCESS:          0  dHIT:          0  dMISS:          0  itACCESS:          0  itHIT:          0  itMISS:          0  dtACCESS:          0  dtHIT:          0  dtMISS:          0
cpu0_ITLB PREFETCH     ACCESS:          0  HIT:          0  MISS:          0  iACCESS:          0  iHIT:          0  iMISS:          0  dACCESS:          0  dHIT:          0  dMISS:          0  itACCESS:          0  itHIT:          0  itMISS:          0  dtACCESS:          0  dtHIT:          0  dtMISS:          0
cpu0_ITLB WRITE        ACCESS:          0  HIT:          0  MISS:          0  iACCESS:          0  iHIT:          0  iMISS:          0  dACCESS:          0  dHIT:          0  dMISS:          0  itACCESS:          0  itHIT:          0  itMISS:          0  dtACCESS:          0  dtHIT:          0  dtMISS:          0
cpu0_ITLB TRANSLATION  ACCESS:          0  HIT:          0  MISS:          0  iACCESS:          0  iHIT:          0  iMISS:          0  dACCESS:          0  dHIT:          0  dMISS:          0  itACCESS:          0  itHIT:          0  itMISS:          0  dtACCESS:          0  dtHIT:          0  dtMISS:          0
cpu0_ITLB PREFETCH  REQUESTED:          0  ISSUED:          0  CROSSED:          0  USEFUL:     320391  USELESS:      66982
cpu0_ITLB AVERAGE iMISS LATENCY: 3.14036 cycles
cpu0_ITLB AVERAGE dMISS LATENCY: 0 cycles
cpu0_ITLB AVERAGE itMISS LATENCY: 0 cycles
cpu0_ITLB AVERAGE dtMISS LATENCY: 0 cycles
cpu0_ITLB PAGE CROSSINGS (TLB HIT):         0 
cpu0_ITLB PAGE CROSSINGS (TLB MISS):         0 
cpu0_ITLB AVERAGE MISS LATENCY: 3.14036 cycles
cpu0_DTLB TOTAL       ACCESS:   27863836  HIT:   25852599  MISS:    2011237  iACCESS:          0  iHIT:          0  iMISS:          0  dACCESS:   27863836  dHIT:   25852599  dMISS:    2011237  itACCESS:          0  itHIT:          0  itMISS:          0  dtACCESS:          0  dtHIT:          0  dtMISS:          0
cpu0_DTLB LOAD         ACCESS:   27863836  HIT:   25852599  MISS:    2011237  iACCESS:          0  iHIT:          0  iMISS:          0  dACCESS:   27863836  dHIT:   25852599  dMISS:    2011237  itACCESS:          0  itHIT:          0  itMISS:          0  dtACCESS:          0  dtHIT:          0  dtMISS:          0
cpu0_DTLB RFO          ACCESS:          0  HIT:          0  MISS:          0  iACCESS:          0  iHIT:          0  iMISS:          0  dACCESS:          0  dHIT:          0  dMISS:          0  itACCESS:          0  itHIT:          0  itMISS:          0  dtACCESS:          0  dtHIT:          0  dtMISS:          0
cpu0_DTLB PREFETCH     ACCESS:          0  HIT:          0  MISS:          0  iACCESS:          0  iHIT:          0  iMISS:          0  dACCESS:          0  dHIT:          0  dMISS:          0  itACCESS:          0  itHIT:          0  itMISS:          0  dtACCESS:          0  dtHIT:          0  dtMISS:          0
cpu0_DTLB WRITE        ACCESS:          0  HIT:          0  MISS:          0  iACCESS:          0  iHIT:          0  iMISS:          0  dACCESS:          0  dHIT:          0  dMISS:          0  itACCESS:          0  itHIT:          0  itMISS:          0  dtACCESS:          0  dtHIT:          0  dtMISS:          0
cpu0_DTLB TRANSLATION  ACCESS:          0  HIT:          0  MISS:          0  iACCESS:          0  iHIT:          0  iMISS:          0  dACCESS:          0  dHIT:          0  dMISS:          0  itACCESS:          0  itHIT:          0  itMISS:          0  dtACCESS:          0  dtHIT:          0  dtMISS:          0
cpu0_DTLB PREFETCH  REQUESTED:          0  ISSUED:          0  CROSSED:          0  USEFUL:          0  USELESS:          0
cpu0_DTLB AVERAGE iMISS LATENCY: 0 cycles
cpu0_DTLB AVERAGE dMISS LATENCY: 10.4176 cycles
cpu0_DTLB AVERAGE itMISS LATENCY: 0 cycles
cpu0_DTLB AVERAGE dtMISS LATENCY: 0 cycles
cpu0_DTLB PAGE CROSSINGS (TLB HIT):         0 
cpu0_DTLB PAGE CROSSINGS (TLB MISS):         0 
cpu0_DTLB AVERAGE MISS LATENCY: 10.4176 cycles
cpu0_STLB TOTAL       ACCESS:    1632731  HIT:    1457334  MISS:     175397  iACCESS:     387398  iHIT:     323707  iMISS:      63691  dACCESS:    1245333  dHIT:    1133627  dMISS:     111706  itACCESS:          0  itHIT:          0  itMISS:          0  dtACCESS:          0  dtHIT:          0  dtMISS:          0
cpu0_STLB LOAD         ACCESS:    1632731  HIT:    1457334  MISS:     175397  iACCESS:     387398  iHIT:     323707  iMISS:      63691  dACCESS:    1245333  dHIT:    1133627  dMISS:     111706  itACCESS:          0  itHIT:          0  itMISS:          0  dtACCESS:          0  dtHIT:          0  dtMISS:          0
cpu0_STLB RFO          ACCESS:          0  HIT:          0  MISS:          0  iACCESS:          0  iHIT:          0  iMISS:          0  dACCESS:          0  dHIT:          0  dMISS:          0  itACCESS:          0  itHIT:          0  itMISS:          0  dtACCESS:          0  dtHIT:          0  dtMISS:          0
cpu0_STLB PREFETCH     ACCESS:          0  HIT:          0  MISS:          0  iACCESS:          0  iHIT:          0  iMISS:          0  dACCESS:          0  dHIT:          0  dMISS:          0  itACCESS:          0  itHIT:          0  itMISS:          0  dtACCESS:          0  dtHIT:          0  dtMISS:          0
cpu0_STLB WRITE        ACCESS:          0  HIT:          0  MISS:          0  iACCESS:          0  iHIT:          0  iMISS:          0  dACCESS:          0  dHIT:          0  dMISS:          0  itACCESS:          0  itHIT:          0  itMISS:          0  dtACCESS:          0  dtHIT:          0  dtMISS:          0
cpu0_STLB TRANSLATION  ACCESS:          0  HIT:          0  MISS:          0  iACCESS:          0  iHIT:          0  iMISS:          0  dACCESS:          0  dHIT:          0  dMISS:          0  itACCESS:          0  itHIT:          0  itMISS:          0  dtACCESS:          0  dtHIT:          0  dtMISS:          0
cpu0_STLB PREFETCH  REQUESTED:          0  ISSUED:          0  CROSSED:          0  USEFUL:          0  USELESS:          0
cpu0_STLB AVERAGE iMISS LATENCY: 17.7383 cycles
cpu0_STLB AVERAGE dMISS LATENCY: 62.8667 cycles
cpu0_STLB AVERAGE itMISS LATENCY: 0 cycles
cpu0_STLB AVERAGE dtMISS LATENCY: 0 cycles
cpu0_STLB PAGE CROSSINGS (TLB HIT):         0 
cpu0_STLB PAGE CROSSINGS (TLB MISS):         0 
cpu0_STLB AVERAGE MISS LATENCY: 80.6049 cycles
cpu0_L1D TOTAL       ACCESS:   41589088  HIT:   38111178  MISS:    3477910  iACCESS:          0  iHIT:          0  iMISS:          0  dACCESS:   41350962  dHIT:   38089638  dMISS:    3261324  itACCESS:      69204  itHIT:       9923  itMISS:      59281  dtACCESS:     168922  dtHIT:      11617  dtMISS:     157305
cpu0_L1D LOAD         ACCESS:   19024628  HIT:   17539581  MISS:    1485047  iACCESS:          0  iHIT:          0  iMISS:          0  dACCESS:   19024628  dHIT:   17539581  dMISS:    1485047  itACCESS:          0  itHIT:          0  itMISS:          0  dtACCESS:          0  dtHIT:          0  dtMISS:          0
cpu0_L1D RFO          ACCESS:          0  HIT:          0  MISS:          0  iACCESS:          0  iHIT:          0  iMISS:          0  dACCESS:          0  dHIT:          0  dMISS:          0  itACCESS:          0  itHIT:          0  itMISS:          0  dtACCESS:          0  dtHIT:          0  dtMISS:          0
cpu0_L1D PREFETCH     ACCESS:   12151790  HIT:   10801712  MISS:    1350078  iACCESS:          0  iHIT:          0  iMISS:          0  dACCESS:   12151790  dHIT:   10801712  dMISS:    1350078  itACCESS:          0  itHIT:          0  itMISS:          0  dtACCESS:          0  dtHIT:          0  dtMISS:          0
cpu0_L1D WRITE        ACCESS:   10174544  HIT:    9748345  MISS:     426199  iACCESS:          0  iHIT:          0  iMISS:          0  dACCESS:   10174544  dHIT:    9748345  dMISS:     426199  itACCESS:          0  itHIT:          0  itMISS:          0  dtACCESS:          0  dtHIT:          0  dtMISS:          0
cpu0_L1D TRANSLATION  ACCESS:     238126  HIT:      21540  MISS:     216586  iACCESS:          0  iHIT:          0  iMISS:          0  dACCESS:          0  dHIT:          0  dMISS:          0  itACCESS:      69204  itHIT:       9923  itMISS:      59281  dtACCESS:     168922  dtHIT:      11617  dtMISS:     157305
cpu0_L1D PREFETCH  REQUESTED:   19024628  ISSUED:   16956068  CROSSED:          0  USEFUL:     306600  USELESS:     701306
cpu0_L1D AVERAGE iMISS LATENCY: 0 cycles
cpu0_L1D AVERAGE dMISS LATENCY: 33.4496 cycles
cpu0_L1D AVERAGE itMISS LATENCY: 0.733099 cycles
cpu0_L1D AVERAGE dtMISS LATENCY: 2.39817 cycles
cpu0_L1D PAGE CROSSINGS (TLB HIT):         0 
cpu0_L1D PAGE CROSSINGS (TLB MISS):         0 
cpu0_L1D AVERAGE MISS LATENCY: 36.5808 cycles
cpu0_L2C TOTAL       ACCESS:    6933238  HIT:    1671718  MISS:    5261520  iACCESS:    3267349  iHIT:     855492  iMISS:    2411857  dACCESS:    3458708  dHIT:     695359  dMISS:    2763349  itACCESS:      59281  itHIT:      42785  itMISS:      16496  dtACCESS:     147900  dtHIT:      78082  dtMISS:      69818
cpu0_L2C LOAD         ACCESS:    1714398  HIT:     296107  MISS:    1418291  iACCESS:     784182  iHIT:     148229  iMISS:     635953  dACCESS:     930216  dHIT:     147878  dMISS:     782338  itACCESS:          0  itHIT:          0  itMISS:          0  dtACCESS:          0  dtHIT:          0  dtMISS:          0
cpu0_L2C RFO          ACCESS:     157476  HIT:      52275  MISS:     105201  iACCESS:          0  iHIT:          0  iMISS:          0  dACCESS:     157476  dHIT:      52275  dMISS:     105201  itACCESS:          0  itHIT:          0  itMISS:          0  dtACCESS:          0  dtHIT:          0  dtMISS:          0
cpu0_L2C PREFETCH     ACCESS:    4570313  HIT:    1063211  MISS:    3507102  iACCESS:    2483167  iHIT:     707263  iMISS:    1775904  dACCESS:    2087146  dHIT:     355948  dMISS:    1731198  itACCESS:          0  itHIT:          0  itMISS:          0  dtACCESS:          0  dtHIT:          0  dtMISS:          0
cpu0_L2C WRITE        ACCESS:     283870  HIT:     139258  MISS:     144612  iACCESS:          0  iHIT:          0  iMISS:          0  dACCESS:     283870  dHIT:     139258  dMISS:     144612  itACCESS:          0  itHIT:          0  itMISS:          0  dtACCESS:          0  dtHIT:          0  dtMISS:          0
cpu0_L2C TRANSLATION  ACCESS:     207181  HIT:     120867  MISS:      86314  iACCESS:          0  iHIT:          0  iMISS:          0  dACCESS:          0  dHIT:          0  dMISS:          0  itACCESS:      59281  itHIT:      42785  itMISS:      16496  dtACCESS:     147900  dtHIT:      78082  dtMISS:      69818
cpu0_L2C PREFETCH  REQUESTED:    1330837  ISSUED:    1330837  CROSSED:          0  USEFUL:     390721  USELESS:     365561
cpu0_L2C AVERAGE iMISS LATENCY: 15.2591 cycles
cpu0_L2C AVERAGE dMISS LATENCY: 25.278 cycles
cpu0_L2C AVERAGE itMISS LATENCY: 0.379798 cycles
cpu0_L2C AVERAGE dtMISS LATENCY: 1.31736 cycles
cpu0_L2C PAGE CROSSINGS (TLB HIT):         0 
cpu0_L2C PAGE CROSSINGS (TLB MISS):         0 
cpu0_L2C AVERAGE MISS LATENCY: 42.2342 cycles
LLC TOTAL       ACCESS:    5147263  HIT:    4343027  MISS:     804236  iACCESS:    2358691  iHIT:    2121099  iMISS:     237592  dACCESS:    2702258  dHIT:    2177200  dMISS:     525058  itACCESS:      16496  itHIT:       6681  itMISS:       9815  dtACCESS:      69818  dtHIT:      38047  dtMISS:      31771
LLC LOAD         ACCESS:    1416582  HIT:    1233536  MISS:     183046  iACCESS:     634733  iHIT:     582798  iMISS:      51935  dACCESS:     781849  dHIT:     650738  dMISS:     131111  itACCESS:          0  itHIT:          0  itMISS:          0  dtACCESS:          0  dtHIT:          0  dtMISS:          0
LLC RFO          ACCESS:     105198  HIT:      69831  MISS:      35367  iACCESS:          0  iHIT:          0  iMISS:          0  dACCESS:     105198  dHIT:      69831  dMISS:      35367  itACCESS:          0  itHIT:          0  itMISS:          0  dtACCESS:          0  dtHIT:          0  dtMISS:          0
LLC PREFETCH     ACCESS:    3402291  HIT:    2867094  MISS:     535197  iACCESS:    1723958  iHIT:    1538301  iMISS:     185657  dACCESS:    1678333  dHIT:    1328793  dMISS:     349540  itACCESS:          0  itHIT:          0  itMISS:          0  dtACCESS:          0  dtHIT:          0  dtMISS:          0
LLC WRITE        ACCESS:     136878  HIT:     127838  MISS:       9040  iACCESS:          0  iHIT:          0  iMISS:          0  dACCESS:     136878  dHIT:     127838  dMISS:       9040  itACCESS:          0  itHIT:          0  itMISS:          0  dtACCESS:          0  dtHIT:          0  dtMISS:          0
LLC TRANSLATION  ACCESS:      86314  HIT:      44728  MISS:      41586  iACCESS:          0  iHIT:          0  iMISS:          0  dACCESS:          0  dHIT:          0  dMISS:          0  itACCESS:      16496  itHIT:       6681  itMISS:       9815  dtACCESS:      69818  dtHIT:      38047  dtMISS:      31771
LLC PREFETCH  REQUESTED:          0  ISSUED:          0  CROSSED:          0  USEFUL:          0  USELESS:          0
LLC AVERAGE iMISS LATENCY: 43.2511 cycles
LLC AVERAGE dMISS LATENCY: 103.73 cycles
LLC AVERAGE itMISS LATENCY: 2.08355 cycles
LLC AVERAGE dtMISS LATENCY: 6.93062 cycles
LLC PAGE CROSSINGS (TLB HIT):         0 
LLC PAGE CROSSINGS (TLB MISS):         0 
LLC AVERAGE MISS LATENCY: 155.996 cycles

PageTableWalker TOTAL       ACCESS:      87101  
PageTableWalker AVERAGE LATENCY: 4.51779 cycles
PageTableWalker TOTAL LATENCY: 393504 cycles

DRAM Statistics
Channel 0
 RQ ROW_BUFFER_HIT:     223137
  ROW_BUFFER_MISS:     572032
 AVG DBUS CONGESTED CYCLE:    3.62075
 WQ ROW_BUFFER_HIT:      16318
  ROW_BUFFER_MISS:      20910  FULL:          0

