last_page:0x200000000000000
VMEM_RES_CAP:0x100000
PAGE_SIZE:4096
LOG2_PAGE_SIZE:12
LOG2_PAGE_TABLE_SIZE:9
page_table_levels:5
WARNING: physical memory size is smaller than virtual memory size
FDiP enabled with aggresivity 16

*** ChampSim Multicore Out-of-Order Simulator ***

Warmup Instructions: 50000000
Simulation Instructions: 100000000
Number of CPUs: 1
Small page size: 4096
Large page size: 2097152

CPU 0 Bimodal branch predictor
Basic BTB sets: 1024 ways: 8 indirect buffer size: 4096 RAS size: 64
Instruction page size distrubution: 0
Loading instruction page size distribution from /home/bsc/bsc018186/scratch/itp_asplos25_AE/dump/srv499_ap.pdst
Data page size distrubution: 0
Loading data page size distribution from /home/bsc/bsc018186/scratch/itp_asplos25_AE/dump/srv499_ap.pdst
cpu0_L2C IP-based stride prefetcher
cpu0_L1D next line prefetcher
cpu0_STLB using iTP with max lru@8
cpu0_STLB using iTP with instr@0 and data@2
Init sat counter with 3 bits (max:50).
cpu0_L1I next line prefetcher
Off-chip DRAM Size: 4 GiB Channels: 1 Width: 64-bit Data Rate: 3200 MT/s
Heartbeat CPU 0 instructions: 10000002 cycles: 2500166 heartbeat IPC: 3.99974 cumulative IPC: 3.99974 (Simulation time: 0 hr 0 min 37 sec) 
Heartbeat CPU 0 instructions: 20000003 cycles: 5000243 heartbeat IPC: 3.99988 cumulative IPC: 3.99981 (Simulation time: 0 hr 1 min 16 sec) 
Heartbeat CPU 0 instructions: 30000003 cycles: 7500304 heartbeat IPC: 3.99991 cumulative IPC: 3.99984 (Simulation time: 0 hr 1 min 56 sec) 
Heartbeat CPU 0 instructions: 40000000 cycles: 10000305 heartbeat IPC: 4 cumulative IPC: 3.99988 (Simulation time: 0 hr 2 min 37 sec) 
Heartbeat CPU 0 instructions: 50000002 cycles: 12500330 heartbeat IPC: 3.99997 cumulative IPC: 3.9999 (Simulation time: 0 hr 3 min 17 sec) 
Warmup finished CPU 0 instructions: 50000002 cycles: 12500331 cumulative IPC: 3.9999 (Simulation time: 0 hr 3 min 17 sec) 

Warmup complete CPU 0 instructions: 50000002 cycles: 12500331 (Simulation time: 0 hr 3 min 17 sec) 

Heartbeat CPU 0 instructions: 60000000 cycles: 25636680 heartbeat IPC: 0.761247 cumulative IPC: 0.761247 (Simulation time: 0 hr 4 min 19 sec) 
Heartbeat CPU 0 instructions: 70000001 cycles: 39451079 heartbeat IPC: 0.723883 cumulative IPC: 0.742095 (Simulation time: 0 hr 5 min 22 sec) 
Heartbeat CPU 0 instructions: 80000004 cycles: 52709907 heartbeat IPC: 0.754215 cumulative IPC: 0.746091 (Simulation time: 0 hr 6 min 26 sec) 
Heartbeat CPU 0 instructions: 90000000 cycles: 67081469 heartbeat IPC: 0.695819 cumulative IPC: 0.732854 (Simulation time: 0 hr 7 min 31 sec) 
Heartbeat CPU 0 instructions: 100000003 cycles: 81552937 heartbeat IPC: 0.691016 cumulative IPC: 0.724086 (Simulation time: 0 hr 8 min 37 sec) 
*** Reached end of trace: /gpfs/projects/bsc18/MN4/bsc18/romol/ChampSim/traces/qualcomm_srv/srv499_ap.champsimtrace.xz
Heartbeat CPU 0 instructions: 110000000 cycles: 94736712 heartbeat IPC: 0.758508 cumulative IPC: 0.729605 (Simulation time: 0 hr 9 min 41 sec) 
Heartbeat CPU 0 instructions: 120000003 cycles: 108256640 heartbeat IPC: 0.73965 cumulative IPC: 0.731023 (Simulation time: 0 hr 10 min 46 sec) 
Heartbeat CPU 0 instructions: 130000002 cycles: 122205175 heartbeat IPC: 0.716922 cumulative IPC: 0.72923 (Simulation time: 0 hr 11 min 51 sec) 
Heartbeat CPU 0 instructions: 140000001 cycles: 135686293 heartbeat IPC: 0.741779 cumulative IPC: 0.730603 (Simulation time: 0 hr 12 min 55 sec) 
Heartbeat CPU 0 instructions: 150000001 cycles: 148960874 heartbeat IPC: 0.75332 cumulative IPC: 0.732813 (Simulation time: 0 hr 14 min 0 sec) 
Simulation finished CPU 0 instructions: 100000004 cycles: 136460545 cumulative IPC: 0.732813 (Simulation time: 0 hr 14 min 0 sec) 

Simulation complete CPU 0 instructions: 100000004 cycles: 136460545 (Simulation time: 0 hr 14 min 0 sec) 


ChampSim completed all CPUs

Saving instructions large page distribution to /home/bsc/bsc018186/scratch/itp_asplos25_AE/dump/srv499_ap.pdst...
Saving data large page distribution to /home/bsc/bsc018186/scratch/itp_asplos25_AE/dump/srv499_ap.pdst...
=== Simulation ===
CPU 0 runs /gpfs/projects/bsc18/MN4/bsc18/romol/ChampSim/traces/qualcomm_srv/srv499_ap.champsimtrace.xz

Region of Interest Statistics

CPU 0 cumulative IPC: 0.732813 instructions: 100000004 cycles: 136460545
CPU 0 Branch Prediction Accuracy: 83.5909% MPKI: 29.3426 Average ROB Occupancy at Mispredict: 12.6125
Branch type MPKI
BRANCH_DIRECT_JUMP: 0.99599
BRANCH_INDIRECT: 15.184
BRANCH_CONDITIONAL: 9.55715
BRANCH_DIRECT_CALL: 1.80037
BRANCH_INDIRECT_CALL: 0.50025
BRANCH_RETURN: 1.30486

Instructions large pages: 0
Instructions small pages: 1039
Large page distribution for instructions: 0%

Data large pages: 0
Data small pages: 10233
Large page distribution for data: 0%

cpu0_L1I TOTAL       ACCESS:   35173042  HIT:   26844434  MISS:    8328608  iACCESS:   35173042  iHIT:   26844434  iMISS:    8328608  dACCESS:          0  dHIT:          0  dMISS:          0  itACCESS:          0  itHIT:          0  itMISS:          0  dtACCESS:          0  dtHIT:          0  dtMISS:          0
cpu0_L1I LOAD         ACCESS:   10330992  HIT:    7992693  MISS:    2338299  iACCESS:   10330992  iHIT:    7992693  iMISS:    2338299  dACCESS:          0  dHIT:          0  dMISS:          0  itACCESS:          0  itHIT:          0  itMISS:          0  dtACCESS:          0  dtHIT:          0  dtMISS:          0
cpu0_L1I RFO          ACCESS:          0  HIT:          0  MISS:          0  iACCESS:          0  iHIT:          0  iMISS:          0  dACCESS:          0  dHIT:          0  dMISS:          0  itACCESS:          0  itHIT:          0  itMISS:          0  dtACCESS:          0  dtHIT:          0  dtMISS:          0
cpu0_L1I PREFETCH     ACCESS:   24842050  HIT:   18851741  MISS:    5990309  iACCESS:   24842050  iHIT:   18851741  iMISS:    5990309  dACCESS:          0  dHIT:          0  dMISS:          0  itACCESS:          0  itHIT:          0  itMISS:          0  dtACCESS:          0  dtHIT:          0  dtMISS:          0
cpu0_L1I WRITE        ACCESS:          0  HIT:          0  MISS:          0  iACCESS:          0  iHIT:          0  iMISS:          0  dACCESS:          0  dHIT:          0  dMISS:          0  itACCESS:          0  itHIT:          0  itMISS:          0  dtACCESS:          0  dtHIT:          0  dtMISS:          0
cpu0_L1I TRANSLATION  ACCESS:          0  HIT:          0  MISS:          0  iACCESS:          0  iHIT:          0  iMISS:          0  dACCESS:          0  dHIT:          0  dMISS:          0  itACCESS:          0  itHIT:          0  itMISS:          0  dtACCESS:          0  dtHIT:          0  dtMISS:          0
cpu0_L1I PREFETCH  REQUESTED:   27213946  ISSUED:   27213320  CROSSED:          0  USEFUL:    1899998  USELESS:     626241
cpu0_L1I AVERAGE iMISS LATENCY: 12.9056 cycles
cpu0_L1I AVERAGE dMISS LATENCY: 0 cycles
cpu0_L1I AVERAGE itMISS LATENCY: 0 cycles
cpu0_L1I AVERAGE dtMISS LATENCY: 0 cycles
cpu0_L1I PAGE CROSSINGS (TLB HIT):         0 
cpu0_L1I PAGE CROSSINGS (TLB MISS):         0 
cpu0_L1I AVERAGE MISS LATENCY: 12.9056 cycles
cpu0_ITLB TOTAL       ACCESS:   29100609  HIT:   27130730  MISS:    1969879  iACCESS:   29100609  iHIT:   27130730  iMISS:    1969879  dACCESS:          0  dHIT:          0  dMISS:          0  itACCESS:          0  itHIT:          0  itMISS:          0  dtACCESS:          0  dtHIT:          0  dtMISS:          0
cpu0_ITLB LOAD         ACCESS:   29100609  HIT:   27130730  MISS:    1969879  iACCESS:   29100609  iHIT:   27130730  iMISS:    1969879  dACCESS:          0  dHIT:          0  dMISS:          0  itACCESS:          0  itHIT:          0  itMISS:          0  dtACCESS:          0  dtHIT:          0  dtMISS:          0
cpu0_ITLB RFO          ACCESS:          0  HIT:          0  MISS:          0  iACCESS:          0  iHIT:          0  iMISS:          0  dACCESS:          0  dHIT:          0  dMISS:          0  itACCESS:          0  itHIT:          0  itMISS:          0  dtACCESS:          0  dtHIT:          0  dtMISS:          0
cpu0_ITLB PREFETCH     ACCESS:          0  HIT:          0  MISS:          0  iACCESS:          0  iHIT:          0  iMISS:          0  dACCESS:          0  dHIT:          0  dMISS:          0  itACCESS:          0  itHIT:          0  itMISS:          0  dtACCESS:          0  dtHIT:          0  dtMISS:          0
cpu0_ITLB WRITE        ACCESS:          0  HIT:          0  MISS:          0  iACCESS:          0  iHIT:          0  iMISS:          0  dACCESS:          0  dHIT:          0  dMISS:          0  itACCESS:          0  itHIT:          0  itMISS:          0  dtACCESS:          0  dtHIT:          0  dtMISS:          0
cpu0_ITLB TRANSLATION  ACCESS:          0  HIT:          0  MISS:          0  iACCESS:          0  iHIT:          0  iMISS:          0  dACCESS:          0  dHIT:          0  dMISS:          0  itACCESS:          0  itHIT:          0  itMISS:          0  dtACCESS:          0  dtHIT:          0  dtMISS:          0
cpu0_ITLB PREFETCH  REQUESTED:          0  ISSUED:          0  CROSSED:          0  USEFUL:     321155  USELESS:      66737
cpu0_ITLB AVERAGE iMISS LATENCY: 1.87312 cycles
cpu0_ITLB AVERAGE dMISS LATENCY: 0 cycles
cpu0_ITLB AVERAGE itMISS LATENCY: 0 cycles
cpu0_ITLB AVERAGE dtMISS LATENCY: 0 cycles
cpu0_ITLB PAGE CROSSINGS (TLB HIT):         0 
cpu0_ITLB PAGE CROSSINGS (TLB MISS):         0 
cpu0_ITLB AVERAGE MISS LATENCY: 1.87312 cycles
cpu0_DTLB TOTAL       ACCESS:   27675432  HIT:   25648495  MISS:    2026937  iACCESS:          0  iHIT:          0  iMISS:          0  dACCESS:   27675432  dHIT:   25648495  dMISS:    2026937  itACCESS:          0  itHIT:          0  itMISS:          0  dtACCESS:          0  dtHIT:          0  dtMISS:          0
cpu0_DTLB LOAD         ACCESS:   27675432  HIT:   25648495  MISS:    2026937  iACCESS:          0  iHIT:          0  iMISS:          0  dACCESS:   27675432  dHIT:   25648495  dMISS:    2026937  itACCESS:          0  itHIT:          0  itMISS:          0  dtACCESS:          0  dtHIT:          0  dtMISS:          0
cpu0_DTLB RFO          ACCESS:          0  HIT:          0  MISS:          0  iACCESS:          0  iHIT:          0  iMISS:          0  dACCESS:          0  dHIT:          0  dMISS:          0  itACCESS:          0  itHIT:          0  itMISS:          0  dtACCESS:          0  dtHIT:          0  dtMISS:          0
cpu0_DTLB PREFETCH     ACCESS:          0  HIT:          0  MISS:          0  iACCESS:          0  iHIT:          0  iMISS:          0  dACCESS:          0  dHIT:          0  dMISS:          0  itACCESS:          0  itHIT:          0  itMISS:          0  dtACCESS:          0  dtHIT:          0  dtMISS:          0
cpu0_DTLB WRITE        ACCESS:          0  HIT:          0  MISS:          0  iACCESS:          0  iHIT:          0  iMISS:          0  dACCESS:          0  dHIT:          0  dMISS:          0  itACCESS:          0  itHIT:          0  itMISS:          0  dtACCESS:          0  dtHIT:          0  dtMISS:          0
cpu0_DTLB TRANSLATION  ACCESS:          0  HIT:          0  MISS:          0  iACCESS:          0  iHIT:          0  iMISS:          0  dACCESS:          0  dHIT:          0  dMISS:          0  itACCESS:          0  itHIT:          0  itMISS:          0  dtACCESS:          0  dtHIT:          0  dtMISS:          0
cpu0_DTLB PREFETCH  REQUESTED:          0  ISSUED:          0  CROSSED:          0  USEFUL:          0  USELESS:          0
cpu0_DTLB AVERAGE iMISS LATENCY: 0 cycles
cpu0_DTLB AVERAGE dMISS LATENCY: 11.1563 cycles
cpu0_DTLB AVERAGE itMISS LATENCY: 0 cycles
cpu0_DTLB AVERAGE dtMISS LATENCY: 0 cycles
cpu0_DTLB PAGE CROSSINGS (TLB HIT):         0 
cpu0_DTLB PAGE CROSSINGS (TLB MISS):         0 
cpu0_DTLB AVERAGE MISS LATENCY: 11.1563 cycles
cpu0_STLB TOTAL       ACCESS:    1628026  HIT:    1485784  MISS:     142242  iACCESS:     387920  iHIT:     381130  iMISS:       6790  dACCESS:    1240106  dHIT:    1104654  dMISS:     135452  itACCESS:          0  itHIT:          0  itMISS:          0  dtACCESS:          0  dtHIT:          0  dtMISS:          0
cpu0_STLB LOAD         ACCESS:    1628026  HIT:    1485784  MISS:     142242  iACCESS:     387920  iHIT:     381130  iMISS:       6790  dACCESS:    1240106  dHIT:    1104654  dMISS:     135452  itACCESS:          0  itHIT:          0  itMISS:          0  dtACCESS:          0  dtHIT:          0  dtMISS:          0
cpu0_STLB RFO          ACCESS:          0  HIT:          0  MISS:          0  iACCESS:          0  iHIT:          0  iMISS:          0  dACCESS:          0  dHIT:          0  dMISS:          0  itACCESS:          0  itHIT:          0  itMISS:          0  dtACCESS:          0  dtHIT:          0  dtMISS:          0
cpu0_STLB PREFETCH     ACCESS:          0  HIT:          0  MISS:          0  iACCESS:          0  iHIT:          0  iMISS:          0  dACCESS:          0  dHIT:          0  dMISS:          0  itACCESS:          0  itHIT:          0  itMISS:          0  dtACCESS:          0  dtHIT:          0  dtMISS:          0
cpu0_STLB WRITE        ACCESS:          0  HIT:          0  MISS:          0  iACCESS:          0  iHIT:          0  iMISS:          0  dACCESS:          0  dHIT:          0  dMISS:          0  itACCESS:          0  itHIT:          0  itMISS:          0  dtACCESS:          0  dtHIT:          0  dtMISS:          0
cpu0_STLB TRANSLATION  ACCESS:          0  HIT:          0  MISS:          0  iACCESS:          0  iHIT:          0  iMISS:          0  dACCESS:          0  dHIT:          0  dMISS:          0  itACCESS:          0  itHIT:          0  itMISS:          0  dtACCESS:          0  dtHIT:          0  dtMISS:          0
cpu0_STLB PREFETCH  REQUESTED:          0  ISSUED:          0  CROSSED:          0  USEFUL:          0  USELESS:          0
cpu0_STLB AVERAGE iMISS LATENCY: 4.79861 cycles
cpu0_STLB AVERAGE dMISS LATENCY: 89.3633 cycles
cpu0_STLB AVERAGE itMISS LATENCY: 0 cycles
cpu0_STLB AVERAGE dtMISS LATENCY: 0 cycles
cpu0_STLB PAGE CROSSINGS (TLB HIT):         0 
cpu0_STLB PAGE CROSSINGS (TLB MISS):         0 
cpu0_STLB AVERAGE MISS LATENCY: 94.1619 cycles
cpu0_L1D TOTAL       ACCESS:   41332813  HIT:   37901322  MISS:    3431491  iACCESS:          0  iHIT:          0  iMISS:          0  dACCESS:   41120640  dHIT:   37887244  dMISS:    3233396  itACCESS:       8514  itHIT:        754  itMISS:       7760  dtACCESS:     203659  dtHIT:      13324  dtMISS:     190335
cpu0_L1D LOAD         ACCESS:   18863172  HIT:   17379813  MISS:    1483359  iACCESS:          0  iHIT:          0  iMISS:          0  dACCESS:   18863172  dHIT:   17379813  dMISS:    1483359  itACCESS:          0  itHIT:          0  itMISS:          0  dtACCESS:          0  dtHIT:          0  dtMISS:          0
cpu0_L1D RFO          ACCESS:          0  HIT:          0  MISS:          0  iACCESS:          0  iHIT:          0  iMISS:          0  dACCESS:          0  dHIT:          0  dMISS:          0  itACCESS:          0  itHIT:          0  itMISS:          0  dtACCESS:          0  dtHIT:          0  dtMISS:          0
cpu0_L1D PREFETCH     ACCESS:   12080343  HIT:   10754203  MISS:    1326140  iACCESS:          0  iHIT:          0  iMISS:          0  dACCESS:   12080343  dHIT:   10754203  dMISS:    1326140  itACCESS:          0  itHIT:          0  itMISS:          0  dtACCESS:          0  dtHIT:          0  dtMISS:          0
cpu0_L1D WRITE        ACCESS:   10177125  HIT:    9753228  MISS:     423897  iACCESS:          0  iHIT:          0  iMISS:          0  dACCESS:   10177125  dHIT:    9753228  dMISS:     423897  itACCESS:          0  itHIT:          0  itMISS:          0  dtACCESS:          0  dtHIT:          0  dtMISS:          0
cpu0_L1D TRANSLATION  ACCESS:     212173  HIT:      14078  MISS:     198095  iACCESS:          0  iHIT:          0  iMISS:          0  dACCESS:          0  dHIT:          0  dMISS:          0  itACCESS:       8514  itHIT:        754  itMISS:       7760  dtACCESS:     203659  dtHIT:      13324  dtMISS:     190335
cpu0_L1D PREFETCH  REQUESTED:   18863172  ISSUED:   16900832  CROSSED:          0  USEFUL:     305120  USELESS:     700651
cpu0_L1D AVERAGE iMISS LATENCY: 0 cycles
cpu0_L1D AVERAGE dMISS LATENCY: 32.5132 cycles
cpu0_L1D AVERAGE itMISS LATENCY: 0.177043 cycles
cpu0_L1D AVERAGE dtMISS LATENCY: 2.88603 cycles
cpu0_L1D PAGE CROSSINGS (TLB HIT):         0 
cpu0_L1D PAGE CROSSINGS (TLB MISS):         0 
cpu0_L1D AVERAGE MISS LATENCY: 35.5763 cycles
cpu0_L2C TOTAL       ACCESS:    6922380  HIT:    1673318  MISS:    5249062  iACCESS:    3278740  iHIT:     853594  iMISS:    2425146  dACCESS:    3454314  dHIT:     718988  dMISS:    2735326  itACCESS:       7760  itHIT:       3622  itMISS:       4138  dtACCESS:     181566  dtHIT:      97114  dtMISS:      84452
cpu0_L2C LOAD         ACCESS:    1718844  HIT:     311386  MISS:    1407458  iACCESS:     786748  iHIT:     149328  iMISS:     637420  dACCESS:     932096  dHIT:     162058  dMISS:     770038  itACCESS:          0  itHIT:          0  itMISS:          0  dtACCESS:          0  dtHIT:          0  dtMISS:          0
cpu0_L2C RFO          ACCESS:     157708  HIT:      55105  MISS:     102603  iACCESS:          0  iHIT:          0  iMISS:          0  dACCESS:     157708  dHIT:      55105  dMISS:     102603  itACCESS:          0  itHIT:          0  itMISS:          0  dtACCESS:          0  dtHIT:          0  dtMISS:          0
cpu0_L2C PREFETCH     ACCESS:    4571012  HIT:    1065211  MISS:    3505801  iACCESS:    2491992  iHIT:     704266  iMISS:    1787726  dACCESS:    2079020  dHIT:     360945  dMISS:    1718075  itACCESS:          0  itHIT:          0  itMISS:          0  dtACCESS:          0  dtHIT:          0  dtMISS:          0
cpu0_L2C WRITE        ACCESS:     285490  HIT:     140880  MISS:     144610  iACCESS:          0  iHIT:          0  iMISS:          0  dACCESS:     285490  dHIT:     140880  dMISS:     144610  itACCESS:          0  itHIT:          0  itMISS:          0  dtACCESS:          0  dtHIT:          0  dtMISS:          0
cpu0_L2C TRANSLATION  ACCESS:     189326  HIT:     100736  MISS:      88590  iACCESS:          0  iHIT:          0  iMISS:          0  dACCESS:          0  dHIT:          0  dMISS:          0  itACCESS:       7760  itHIT:       3622  itMISS:       4138  dtACCESS:     181566  dtHIT:      97114  dtMISS:      84452
cpu0_L2C PREFETCH  REQUESTED:    1323113  ISSUED:    1323113  CROSSED:          0  USEFUL:     392489  USELESS:     365954
cpu0_L2C AVERAGE iMISS LATENCY: 14.7255 cycles
cpu0_L2C AVERAGE dMISS LATENCY: 24.0673 cycles
cpu0_L2C AVERAGE itMISS LATENCY: 0.101617 cycles
cpu0_L2C AVERAGE dtMISS LATENCY: 1.55733 cycles
cpu0_L2C PAGE CROSSINGS (TLB HIT):         0 
cpu0_L2C PAGE CROSSINGS (TLB MISS):         0 
cpu0_L2C AVERAGE MISS LATENCY: 40.4517 cycles
LLC TOTAL       ACCESS:    5136872  HIT:    4390011  MISS:     746861  iACCESS:    2376045  iHIT:    2160529  iMISS:     215516  dACCESS:    2672237  dHIT:    2180888  dMISS:     491349  itACCESS:       4138  itHIT:       1565  itMISS:       2573  dtACCESS:      84452  dtHIT:      47029  dtMISS:      37423
LLC LOAD         ACCESS:    1405719  HIT:    1238023  MISS:     167696  iACCESS:     636025  iHIT:     590017  iMISS:      46008  dACCESS:     769694  dHIT:     648006  dMISS:     121688  itACCESS:          0  itHIT:          0  itMISS:          0  dtACCESS:          0  dtHIT:          0  dtMISS:          0
LLC RFO          ACCESS:     102601  HIT:      68657  MISS:      33944  iACCESS:          0  iHIT:          0  iMISS:          0  dACCESS:     102601  dHIT:      68657  dMISS:      33944  itACCESS:          0  itHIT:          0  itMISS:          0  dtACCESS:          0  dtHIT:          0  dtMISS:          0
LLC PREFETCH     ACCESS:    3406816  HIT:    2911010  MISS:     495806  iACCESS:    1740020  iHIT:    1570512  iMISS:     169508  dACCESS:    1666796  dHIT:    1340498  dMISS:     326298  itACCESS:          0  itHIT:          0  itMISS:          0  dtACCESS:          0  dtHIT:          0  dtMISS:          0
LLC WRITE        ACCESS:     133146  HIT:     123727  MISS:       9419  iACCESS:          0  iHIT:          0  iMISS:          0  dACCESS:     133146  dHIT:     123727  dMISS:       9419  itACCESS:          0  itHIT:          0  itMISS:          0  dtACCESS:          0  dtHIT:          0  dtMISS:          0
LLC TRANSLATION  ACCESS:      88590  HIT:      48594  MISS:      39996  iACCESS:          0  iHIT:          0  iMISS:          0  dACCESS:          0  dHIT:          0  dMISS:          0  itACCESS:       4138  itHIT:       1565  itMISS:       2573  dtACCESS:      84452  dtHIT:      47029  dtMISS:      37423
LLC PREFETCH  REQUESTED:          0  ISSUED:          0  CROSSED:          0  USEFUL:          0  USELESS:          0
LLC AVERAGE iMISS LATENCY: 42.1228 cycles
LLC AVERAGE dMISS LATENCY: 103.463 cycles
LLC AVERAGE itMISS LATENCY: 0.605713 cycles
LLC AVERAGE dtMISS LATENCY: 8.74642 cycles
LLC PAGE CROSSINGS (TLB HIT):         0 
LLC PAGE CROSSINGS (TLB MISS):         0 
LLC AVERAGE MISS LATENCY: 154.938 cycles

PageTableWalker TOTAL       ACCESS:      70898  
PageTableWalker AVERAGE LATENCY: 5.2379 cycles
PageTableWalker TOTAL LATENCY: 371356 cycles

DRAM Statistics
Channel 0
 RQ ROW_BUFFER_HIT:     205110
  ROW_BUFFER_MISS:     532275
 AVG DBUS CONGESTED CYCLE:     3.6164
 WQ ROW_BUFFER_HIT:      15206
  ROW_BUFFER_MISS:      21168  FULL:          0

