last_page:0x200000000000000
VMEM_RES_CAP:0x100000
PAGE_SIZE:4096
LOG2_PAGE_SIZE:12
LOG2_PAGE_TABLE_SIZE:9
page_table_levels:5
WARNING: physical memory size is smaller than virtual memory size
FDiP enabled with aggresivity 16

*** ChampSim Multicore Out-of-Order Simulator ***

Warmup Instructions: 50000000
Simulation Instructions: 100000000
Number of CPUs: 1
Small page size: 4096
Large page size: 2097152

CPU 0 Bimodal branch predictor
Basic BTB sets: 1024 ways: 8 indirect buffer size: 4096 RAS size: 64
Instruction page size distrubution: 0
Loading instruction page size distribution from /home/bsc/bsc018186/scratch/itp_asplos25_AE/dump/srv459_ap.pdst
Data page size distrubution: 0
Loading data page size distribution from /home/bsc/bsc018186/scratch/itp_asplos25_AE/dump/srv459_ap.pdst
cpu0_L2C IP-based stride prefetcher
cpu0_L1D next line prefetcher
cpu0_STLB using iTP with max lru@8
cpu0_STLB using iTP with instr@0 and data@2
Init sat counter with 3 bits (max:50).
cpu0_L1I next line prefetcher
Off-chip DRAM Size: 4 GiB Channels: 1 Width: 64-bit Data Rate: 3200 MT/s
Heartbeat CPU 0 instructions: 10000003 cycles: 2500214 heartbeat IPC: 3.99966 cumulative IPC: 3.99966 (Simulation time: 0 hr 0 min 38 sec) 
Heartbeat CPU 0 instructions: 20000000 cycles: 5000214 heartbeat IPC: 4 cumulative IPC: 3.99983 (Simulation time: 0 hr 1 min 19 sec) 
Heartbeat CPU 0 instructions: 30000003 cycles: 7500232 heartbeat IPC: 3.99998 cumulative IPC: 3.99988 (Simulation time: 0 hr 1 min 59 sec) 
Heartbeat CPU 0 instructions: 40000000 cycles: 10000425 heartbeat IPC: 3.9997 cumulative IPC: 3.99984 (Simulation time: 0 hr 2 min 40 sec) 
Heartbeat CPU 0 instructions: 50000000 cycles: 12500425 heartbeat IPC: 4 cumulative IPC: 3.99987 (Simulation time: 0 hr 3 min 22 sec) 
Warmup finished CPU 0 instructions: 50000000 cycles: 12500426 cumulative IPC: 3.99987 (Simulation time: 0 hr 3 min 22 sec) 

Warmup complete CPU 0 instructions: 50000000 cycles: 12500426 (Simulation time: 0 hr 3 min 22 sec) 

Heartbeat CPU 0 instructions: 60000000 cycles: 27030018 heartbeat IPC: 0.688251 cumulative IPC: 0.688251 (Simulation time: 0 hr 4 min 26 sec) 
Heartbeat CPU 0 instructions: 70000000 cycles: 41408791 heartbeat IPC: 0.69547 cumulative IPC: 0.691842 (Simulation time: 0 hr 5 min 30 sec) 
Heartbeat CPU 0 instructions: 80000000 cycles: 55395870 heartbeat IPC: 0.714946 cumulative IPC: 0.699375 (Simulation time: 0 hr 6 min 33 sec) 
Heartbeat CPU 0 instructions: 90000003 cycles: 69722613 heartbeat IPC: 0.697996 cumulative IPC: 0.69903 (Simulation time: 0 hr 7 min 37 sec) 
Heartbeat CPU 0 instructions: 100000002 cycles: 83830546 heartbeat IPC: 0.708821 cumulative IPC: 0.700967 (Simulation time: 0 hr 8 min 40 sec) 
*** Reached end of trace: /gpfs/projects/bsc18/MN4/bsc18/romol/ChampSim/traces/qualcomm_srv/srv459_ap.champsimtrace.xz
Heartbeat CPU 0 instructions: 110000001 cycles: 97743486 heartbeat IPC: 0.718756 cumulative IPC: 0.70387 (Simulation time: 0 hr 9 min 44 sec) 
Heartbeat CPU 0 instructions: 120000002 cycles: 111072235 heartbeat IPC: 0.750259 cumulative IPC: 0.710143 (Simulation time: 0 hr 10 min 47 sec) 
Heartbeat CPU 0 instructions: 130000000 cycles: 124936263 heartbeat IPC: 0.721291 cumulative IPC: 0.711517 (Simulation time: 0 hr 11 min 51 sec) 
Heartbeat CPU 0 instructions: 140000002 cycles: 138522380 heartbeat IPC: 0.736046 cumulative IPC: 0.714162 (Simulation time: 0 hr 12 min 53 sec) 
Heartbeat CPU 0 instructions: 150000000 cycles: 152439434 heartbeat IPC: 0.718543 cumulative IPC: 0.714598 (Simulation time: 0 hr 13 min 57 sec) 
Simulation finished CPU 0 instructions: 100000000 cycles: 139939009 cumulative IPC: 0.714598 (Simulation time: 0 hr 13 min 57 sec) 

Simulation complete CPU 0 instructions: 100000000 cycles: 139939009 (Simulation time: 0 hr 13 min 57 sec) 


ChampSim completed all CPUs

Saving instructions large page distribution to /home/bsc/bsc018186/scratch/itp_asplos25_AE/dump/srv459_ap.pdst...
Saving data large page distribution to /home/bsc/bsc018186/scratch/itp_asplos25_AE/dump/srv459_ap.pdst...
=== Simulation ===
CPU 0 runs /gpfs/projects/bsc18/MN4/bsc18/romol/ChampSim/traces/qualcomm_srv/srv459_ap.champsimtrace.xz

Region of Interest Statistics

CPU 0 cumulative IPC: 0.714598 instructions: 100000000 cycles: 139939009
CPU 0 Branch Prediction Accuracy: 83.3738% MPKI: 29.7268 Average ROB Occupancy at Mispredict: 12.2878
Branch type MPKI
BRANCH_DIRECT_JUMP: 1.02553
BRANCH_INDIRECT: 15.3168
BRANCH_CONDITIONAL: 9.68339
BRANCH_DIRECT_CALL: 1.84684
BRANCH_INDIRECT_CALL: 0.513661
BRANCH_RETURN: 1.34067

Instructions large pages: 0
Instructions small pages: 995
Large page distribution for instructions: 0%

Data large pages: 0
Data small pages: 10329
Large page distribution for data: 0%

cpu0_L1I TOTAL       ACCESS:   35155785  HIT:   26918148  MISS:    8237637  iACCESS:   35155785  iHIT:   26918148  iMISS:    8237637  dACCESS:          0  dHIT:          0  dMISS:          0  itACCESS:          0  itHIT:          0  itMISS:          0  dtACCESS:          0  dtHIT:          0  dtMISS:          0
cpu0_L1I LOAD         ACCESS:   10329318  HIT:    8024879  MISS:    2304439  iACCESS:   10329318  iHIT:    8024879  iMISS:    2304439  dACCESS:          0  dHIT:          0  dMISS:          0  itACCESS:          0  itHIT:          0  itMISS:          0  dtACCESS:          0  dtHIT:          0  dtMISS:          0
cpu0_L1I RFO          ACCESS:          0  HIT:          0  MISS:          0  iACCESS:          0  iHIT:          0  iMISS:          0  dACCESS:          0  dHIT:          0  dMISS:          0  itACCESS:          0  itHIT:          0  itMISS:          0  dtACCESS:          0  dtHIT:          0  dtMISS:          0
cpu0_L1I PREFETCH     ACCESS:   24826467  HIT:   18893269  MISS:    5933198  iACCESS:   24826467  iHIT:   18893269  iMISS:    5933198  dACCESS:          0  dHIT:          0  dMISS:          0  itACCESS:          0  itHIT:          0  itMISS:          0  dtACCESS:          0  dtHIT:          0  dtMISS:          0
cpu0_L1I WRITE        ACCESS:          0  HIT:          0  MISS:          0  iACCESS:          0  iHIT:          0  iMISS:          0  dACCESS:          0  dHIT:          0  dMISS:          0  itACCESS:          0  itHIT:          0  itMISS:          0  dtACCESS:          0  dtHIT:          0  dtMISS:          0
cpu0_L1I TRANSLATION  ACCESS:          0  HIT:          0  MISS:          0  iACCESS:          0  iHIT:          0  iMISS:          0  dACCESS:          0  dHIT:          0  dMISS:          0  itACCESS:          0  itHIT:          0  itMISS:          0  dtACCESS:          0  dtHIT:          0  dtMISS:          0
cpu0_L1I PREFETCH  REQUESTED:   27213984  ISSUED:   27212535  CROSSED:          0  USEFUL:    1890691  USELESS:     622750
cpu0_L1I AVERAGE iMISS LATENCY: 13.4424 cycles
cpu0_L1I AVERAGE dMISS LATENCY: 0 cycles
cpu0_L1I AVERAGE itMISS LATENCY: 0 cycles
cpu0_L1I AVERAGE dtMISS LATENCY: 0 cycles
cpu0_L1I PAGE CROSSINGS (TLB HIT):         0 
cpu0_L1I PAGE CROSSINGS (TLB MISS):         0 
cpu0_L1I AVERAGE MISS LATENCY: 13.4424 cycles
cpu0_ITLB TOTAL       ACCESS:   29098490  HIT:   27146237  MISS:    1952253  iACCESS:   29098490  iHIT:   27146237  iMISS:    1952253  dACCESS:          0  dHIT:          0  dMISS:          0  itACCESS:          0  itHIT:          0  itMISS:          0  dtACCESS:          0  dtHIT:          0  dtMISS:          0
cpu0_ITLB LOAD         ACCESS:   29098490  HIT:   27146237  MISS:    1952253  iACCESS:   29098490  iHIT:   27146237  iMISS:    1952253  dACCESS:          0  dHIT:          0  dMISS:          0  itACCESS:          0  itHIT:          0  itMISS:          0  dtACCESS:          0  dtHIT:          0  dtMISS:          0
cpu0_ITLB RFO          ACCESS:          0  HIT:          0  MISS:          0  iACCESS:          0  iHIT:          0  iMISS:          0  dACCESS:          0  dHIT:          0  dMISS:          0  itACCESS:          0  itHIT:          0  itMISS:          0  dtACCESS:          0  dtHIT:          0  dtMISS:          0
cpu0_ITLB PREFETCH     ACCESS:          0  HIT:          0  MISS:          0  iACCESS:          0  iHIT:          0  iMISS:          0  dACCESS:          0  dHIT:          0  dMISS:          0  itACCESS:          0  itHIT:          0  itMISS:          0  dtACCESS:          0  dtHIT:          0  dtMISS:          0
cpu0_ITLB WRITE        ACCESS:          0  HIT:          0  MISS:          0  iACCESS:          0  iHIT:          0  iMISS:          0  dACCESS:          0  dHIT:          0  dMISS:          0  itACCESS:          0  itHIT:          0  itMISS:          0  dtACCESS:          0  dtHIT:          0  dtMISS:          0
cpu0_ITLB TRANSLATION  ACCESS:          0  HIT:          0  MISS:          0  iACCESS:          0  iHIT:          0  iMISS:          0  dACCESS:          0  dHIT:          0  dMISS:          0  itACCESS:          0  itHIT:          0  itMISS:          0  dtACCESS:          0  dtHIT:          0  dtMISS:          0
cpu0_ITLB PREFETCH  REQUESTED:          0  ISSUED:          0  CROSSED:          0  USEFUL:     320746  USELESS:      65364
cpu0_ITLB AVERAGE iMISS LATENCY: 1.95709 cycles
cpu0_ITLB AVERAGE dMISS LATENCY: 0 cycles
cpu0_ITLB AVERAGE itMISS LATENCY: 0 cycles
cpu0_ITLB AVERAGE dtMISS LATENCY: 0 cycles
cpu0_ITLB PAGE CROSSINGS (TLB HIT):         0 
cpu0_ITLB PAGE CROSSINGS (TLB MISS):         0 
cpu0_ITLB AVERAGE MISS LATENCY: 1.95709 cycles
cpu0_DTLB TOTAL       ACCESS:   27701807  HIT:   25767700  MISS:    1934107  iACCESS:          0  iHIT:          0  iMISS:          0  dACCESS:   27701807  dHIT:   25767700  dMISS:    1934107  itACCESS:          0  itHIT:          0  itMISS:          0  dtACCESS:          0  dtHIT:          0  dtMISS:          0
cpu0_DTLB LOAD         ACCESS:   27701807  HIT:   25767700  MISS:    1934107  iACCESS:          0  iHIT:          0  iMISS:          0  dACCESS:   27701807  dHIT:   25767700  dMISS:    1934107  itACCESS:          0  itHIT:          0  itMISS:          0  dtACCESS:          0  dtHIT:          0  dtMISS:          0
cpu0_DTLB RFO          ACCESS:          0  HIT:          0  MISS:          0  iACCESS:          0  iHIT:          0  iMISS:          0  dACCESS:          0  dHIT:          0  dMISS:          0  itACCESS:          0  itHIT:          0  itMISS:          0  dtACCESS:          0  dtHIT:          0  dtMISS:          0
cpu0_DTLB PREFETCH     ACCESS:          0  HIT:          0  MISS:          0  iACCESS:          0  iHIT:          0  iMISS:          0  dACCESS:          0  dHIT:          0  dMISS:          0  itACCESS:          0  itHIT:          0  itMISS:          0  dtACCESS:          0  dtHIT:          0  dtMISS:          0
cpu0_DTLB WRITE        ACCESS:          0  HIT:          0  MISS:          0  iACCESS:          0  iHIT:          0  iMISS:          0  dACCESS:          0  dHIT:          0  dMISS:          0  itACCESS:          0  itHIT:          0  itMISS:          0  dtACCESS:          0  dtHIT:          0  dtMISS:          0
cpu0_DTLB TRANSLATION  ACCESS:          0  HIT:          0  MISS:          0  iACCESS:          0  iHIT:          0  iMISS:          0  dACCESS:          0  dHIT:          0  dMISS:          0  itACCESS:          0  itHIT:          0  itMISS:          0  dtACCESS:          0  dtHIT:          0  dtMISS:          0
cpu0_DTLB PREFETCH  REQUESTED:          0  ISSUED:          0  CROSSED:          0  USEFUL:          0  USELESS:          0
cpu0_DTLB AVERAGE iMISS LATENCY: 0 cycles
cpu0_DTLB AVERAGE dMISS LATENCY: 11.4149 cycles
cpu0_DTLB AVERAGE itMISS LATENCY: 0 cycles
cpu0_DTLB AVERAGE dtMISS LATENCY: 0 cycles
cpu0_DTLB PAGE CROSSINGS (TLB HIT):         0 
cpu0_DTLB PAGE CROSSINGS (TLB MISS):         0 
cpu0_DTLB AVERAGE MISS LATENCY: 11.4149 cycles
cpu0_STLB TOTAL       ACCESS:    1536548  HIT:    1391923  MISS:     144625  iACCESS:     386126  iHIT:     377417  iMISS:       8709  dACCESS:    1150422  dHIT:    1014506  dMISS:     135916  itACCESS:          0  itHIT:          0  itMISS:          0  dtACCESS:          0  dtHIT:          0  dtMISS:          0
cpu0_STLB LOAD         ACCESS:    1536548  HIT:    1391923  MISS:     144625  iACCESS:     386126  iHIT:     377417  iMISS:       8709  dACCESS:    1150422  dHIT:    1014506  dMISS:     135916  itACCESS:          0  itHIT:          0  itMISS:          0  dtACCESS:          0  dtHIT:          0  dtMISS:          0
cpu0_STLB RFO          ACCESS:          0  HIT:          0  MISS:          0  iACCESS:          0  iHIT:          0  iMISS:          0  dACCESS:          0  dHIT:          0  dMISS:          0  itACCESS:          0  itHIT:          0  itMISS:          0  dtACCESS:          0  dtHIT:          0  dtMISS:          0
cpu0_STLB PREFETCH     ACCESS:          0  HIT:          0  MISS:          0  iACCESS:          0  iHIT:          0  iMISS:          0  dACCESS:          0  dHIT:          0  dMISS:          0  itACCESS:          0  itHIT:          0  itMISS:          0  dtACCESS:          0  dtHIT:          0  dtMISS:          0
cpu0_STLB WRITE        ACCESS:          0  HIT:          0  MISS:          0  iACCESS:          0  iHIT:          0  iMISS:          0  dACCESS:          0  dHIT:          0  dMISS:          0  itACCESS:          0  itHIT:          0  itMISS:          0  dtACCESS:          0  dtHIT:          0  dtMISS:          0
cpu0_STLB TRANSLATION  ACCESS:          0  HIT:          0  MISS:          0  iACCESS:          0  iHIT:          0  iMISS:          0  dACCESS:          0  dHIT:          0  dMISS:          0  itACCESS:          0  itHIT:          0  itMISS:          0  dtACCESS:          0  dtHIT:          0  dtMISS:          0
cpu0_STLB PREFETCH  REQUESTED:          0  ISSUED:          0  CROSSED:          0  USEFUL:          0  USELESS:          0
cpu0_STLB AVERAGE iMISS LATENCY: 5.70225 cycles
cpu0_STLB AVERAGE dMISS LATENCY: 89.069 cycles
cpu0_STLB AVERAGE itMISS LATENCY: 0 cycles
cpu0_STLB AVERAGE dtMISS LATENCY: 0 cycles
cpu0_STLB PAGE CROSSINGS (TLB HIT):         0 
cpu0_STLB PAGE CROSSINGS (TLB MISS):         0 
cpu0_STLB AVERAGE MISS LATENCY: 94.7712 cycles
cpu0_L1D TOTAL       ACCESS:   41385706  HIT:   37966360  MISS:    3419346  iACCESS:          0  iHIT:          0  iMISS:          0  dACCESS:   41175138  dHIT:   37952413  dMISS:    3222725  itACCESS:      10757  itHIT:       1059  itMISS:       9698  dtACCESS:     199811  dtHIT:      12888  dtMISS:     186923
cpu0_L1D LOAD         ACCESS:   18937655  HIT:   17466880  MISS:    1470775  iACCESS:          0  iHIT:          0  iMISS:          0  dACCESS:   18937655  dHIT:   17466880  dMISS:    1470775  itACCESS:          0  itHIT:          0  itMISS:          0  dtACCESS:          0  dtHIT:          0  dtMISS:          0
cpu0_L1D RFO          ACCESS:          0  HIT:          0  MISS:          0  iACCESS:          0  iHIT:          0  iMISS:          0  dACCESS:          0  dHIT:          0  dMISS:          0  itACCESS:          0  itHIT:          0  itMISS:          0  dtACCESS:          0  dtHIT:          0  dtMISS:          0
cpu0_L1D PREFETCH     ACCESS:   12081757  HIT:   10749558  MISS:    1332199  iACCESS:          0  iHIT:          0  iMISS:          0  dACCESS:   12081757  dHIT:   10749558  dMISS:    1332199  itACCESS:          0  itHIT:          0  itMISS:          0  dtACCESS:          0  dtHIT:          0  dtMISS:          0
cpu0_L1D WRITE        ACCESS:   10155726  HIT:    9735975  MISS:     419751  iACCESS:          0  iHIT:          0  iMISS:          0  dACCESS:   10155726  dHIT:    9735975  dMISS:     419751  itACCESS:          0  itHIT:          0  itMISS:          0  dtACCESS:          0  dtHIT:          0  dtMISS:          0
cpu0_L1D TRANSLATION  ACCESS:     210568  HIT:      13947  MISS:     196621  iACCESS:          0  iHIT:          0  iMISS:          0  dACCESS:          0  dHIT:          0  dMISS:          0  itACCESS:      10757  itHIT:       1059  itMISS:       9698  dtACCESS:     199811  dtHIT:      12888  dtMISS:     186923
cpu0_L1D PREFETCH  REQUESTED:   18937655  ISSUED:   16918222  CROSSED:          0  USEFUL:     304781  USELESS:     693138
cpu0_L1D AVERAGE iMISS LATENCY: 0 cycles
cpu0_L1D AVERAGE dMISS LATENCY: 33.9463 cycles
cpu0_L1D AVERAGE itMISS LATENCY: 0.212841 cycles
cpu0_L1D AVERAGE dtMISS LATENCY: 2.94006 cycles
cpu0_L1D PAGE CROSSINGS (TLB HIT):         0 
cpu0_L1D PAGE CROSSINGS (TLB MISS):         0 
cpu0_L1D AVERAGE MISS LATENCY: 37.0992 cycles
cpu0_L2C TOTAL       ACCESS:    6877618  HIT:    1646469  MISS:    5231149  iACCESS:    3259995  iHIT:     856500  iMISS:    2403495  dACCESS:    3427131  dHIT:     686958  dMISS:    2740173  itACCESS:       9698  itHIT:       4586  itMISS:       5112  dtACCESS:     180794  dtHIT:      98425  dtMISS:      82369
cpu0_L2C LOAD         ACCESS:    1697989  HIT:     294765  MISS:    1403224  iACCESS:     779223  iHIT:     146120  iMISS:     633103  dACCESS:     918766  dHIT:     148645  dMISS:     770121  itACCESS:          0  itHIT:          0  itMISS:          0  dtACCESS:          0  dtHIT:          0  dtMISS:          0
cpu0_L2C RFO          ACCESS:     156187  HIT:      51839  MISS:     104348  iACCESS:          0  iHIT:          0  iMISS:          0  dACCESS:     156187  dHIT:      51839  dMISS:     104348  itACCESS:          0  itHIT:          0  itMISS:          0  dtACCESS:          0  dtHIT:          0  dtMISS:          0
cpu0_L2C PREFETCH     ACCESS:    4550064  HIT:    1062844  MISS:    3487220  iACCESS:    2480772  iHIT:     710380  iMISS:    1770392  dACCESS:    2069292  dHIT:     352464  dMISS:    1716828  itACCESS:          0  itHIT:          0  itMISS:          0  dtACCESS:          0  dtHIT:          0  dtMISS:          0
cpu0_L2C WRITE        ACCESS:     282886  HIT:     134010  MISS:     148876  iACCESS:          0  iHIT:          0  iMISS:          0  dACCESS:     282886  dHIT:     134010  dMISS:     148876  itACCESS:          0  itHIT:          0  itMISS:          0  dtACCESS:          0  dtHIT:          0  dtMISS:          0
cpu0_L2C TRANSLATION  ACCESS:     190492  HIT:     103011  MISS:      87481  iACCESS:          0  iHIT:          0  iMISS:          0  dACCESS:          0  dHIT:          0  dMISS:          0  itACCESS:       9698  itHIT:       4586  itMISS:       5112  dtACCESS:     180794  dtHIT:      98425  dtMISS:      82369
cpu0_L2C PREFETCH  REQUESTED:    1318026  ISSUED:    1318026  CROSSED:          0  USEFUL:     391543  USELESS:     360816
cpu0_L2C AVERAGE iMISS LATENCY: 15.4511 cycles
cpu0_L2C AVERAGE dMISS LATENCY: 25.459 cycles
cpu0_L2C AVERAGE itMISS LATENCY: 0.121418 cycles
cpu0_L2C AVERAGE dtMISS LATENCY: 1.59312 cycles
cpu0_L2C PAGE CROSSINGS (TLB HIT):         0 
cpu0_L2C PAGE CROSSINGS (TLB MISS):         0 
cpu0_L2C AVERAGE MISS LATENCY: 42.6246 cycles
LLC TOTAL       ACCESS:    5114445  HIT:    4293467  MISS:     820978  iACCESS:    2350724  iHIT:    2105458  iMISS:     245266  dACCESS:    2676240  dHIT:    2142002  dMISS:     534238  itACCESS:       5112  itHIT:       2050  itMISS:       3062  dtACCESS:      82369  dtHIT:      43957  dtMISS:      38412
LLC LOAD         ACCESS:    1401711  HIT:    1215217  MISS:     186494  iACCESS:     631996  iHIT:     578726  iMISS:      53270  dACCESS:     769715  dHIT:     636491  dMISS:     133224  itACCESS:          0  itHIT:          0  itMISS:          0  dtACCESS:          0  dtHIT:          0  dtMISS:          0
LLC RFO          ACCESS:     104346  HIT:      68819  MISS:      35527  iACCESS:          0  iHIT:          0  iMISS:          0  dACCESS:     104346  dHIT:      68819  dMISS:      35527  itACCESS:          0  itHIT:          0  itMISS:          0  dtACCESS:          0  dtHIT:          0  dtMISS:          0
LLC PREFETCH     ACCESS:    3383560  HIT:    2834981  MISS:     548579  iACCESS:    1718728  iHIT:    1526732  iMISS:     191996  dACCESS:    1664832  dHIT:    1308249  dMISS:     356583  itACCESS:          0  itHIT:          0  itMISS:          0  dtACCESS:          0  dtHIT:          0  dtMISS:          0
LLC WRITE        ACCESS:     137347  HIT:     128443  MISS:       8904  iACCESS:          0  iHIT:          0  iMISS:          0  dACCESS:     137347  dHIT:     128443  dMISS:       8904  itACCESS:          0  itHIT:          0  itMISS:          0  dtACCESS:          0  dtHIT:          0  dtMISS:          0
LLC TRANSLATION  ACCESS:      87481  HIT:      46007  MISS:      41474  iACCESS:          0  iHIT:          0  iMISS:          0  dACCESS:          0  dHIT:          0  dMISS:          0  itACCESS:       5112  itHIT:       2050  itMISS:       3062  dtACCESS:      82369  dtHIT:      43957  dtMISS:      38412
LLC PREFETCH  REQUESTED:          0  ISSUED:          0  CROSSED:          0  USEFUL:          0  USELESS:          0
LLC AVERAGE iMISS LATENCY: 43.2027 cycles
LLC AVERAGE dMISS LATENCY: 102.575 cycles
LLC AVERAGE itMISS LATENCY: 0.65186 cycles
LLC AVERAGE dtMISS LATENCY: 8.19837 cycles
LLC PAGE CROSSINGS (TLB HIT):         0 
LLC PAGE CROSSINGS (TLB MISS):         0 
LLC AVERAGE MISS LATENCY: 154.627 cycles

PageTableWalker TOTAL       ACCESS:      71075  
PageTableWalker AVERAGE LATENCY: 5.06309 cycles
PageTableWalker TOTAL LATENCY: 359859 cycles

DRAM Statistics
Channel 0
 RQ ROW_BUFFER_HIT:     234524
  ROW_BUFFER_MISS:     577470
 AVG DBUS CONGESTED CYCLE:    3.62604
 WQ ROW_BUFFER_HIT:      16998
  ROW_BUFFER_MISS:      22126  FULL:          0

