last_page:0x200000000000000
VMEM_RES_CAP:0x100000
PAGE_SIZE:4096
LOG2_PAGE_SIZE:12
LOG2_PAGE_TABLE_SIZE:9
page_table_levels:5
WARNING: physical memory size is smaller than virtual memory size
FDiP enabled with aggresivity 16

*** ChampSim Multicore Out-of-Order Simulator ***

Warmup Instructions: 50000000
Simulation Instructions: 100000000
Number of CPUs: 1
Small page size: 4096
Large page size: 2097152

CPU 0 Bimodal branch predictor
Basic BTB sets: 1024 ways: 8 indirect buffer size: 4096 RAS size: 64
Instruction page size distrubution: 0
Loading instruction page size distribution from /home/bsc/bsc018186/scratch/itp_asplos25_AE/dump/srv44_ap.pdst
Data page size distrubution: 0
Loading data page size distribution from /home/bsc/bsc018186/scratch/itp_asplos25_AE/dump/srv44_ap.pdst
cpu0_L2C IP-based stride prefetcher
cpu0_L1D next line prefetcher
cpu0_STLB using iTP with max lru@8
cpu0_STLB using iTP with instr@0 and data@2
Init sat counter with 3 bits (max:50).
cpu0_L1I next line prefetcher
Off-chip DRAM Size: 4 GiB Channels: 1 Width: 64-bit Data Rate: 3200 MT/s
Heartbeat CPU 0 instructions: 10000003 cycles: 2500176 heartbeat IPC: 3.99972 cumulative IPC: 3.99972 (Simulation time: 0 hr 0 min 37 sec) 
Heartbeat CPU 0 instructions: 20000003 cycles: 5000210 heartbeat IPC: 3.99995 cumulative IPC: 3.99984 (Simulation time: 0 hr 1 min 17 sec) 
Heartbeat CPU 0 instructions: 30000002 cycles: 7500238 heartbeat IPC: 3.99996 cumulative IPC: 3.99988 (Simulation time: 0 hr 1 min 57 sec) 
Heartbeat CPU 0 instructions: 40000001 cycles: 10000239 heartbeat IPC: 4 cumulative IPC: 3.99991 (Simulation time: 0 hr 2 min 37 sec) 
Heartbeat CPU 0 instructions: 50000002 cycles: 12500289 heartbeat IPC: 3.99993 cumulative IPC: 3.99991 (Simulation time: 0 hr 3 min 17 sec) 
Warmup finished CPU 0 instructions: 50000002 cycles: 12500290 cumulative IPC: 3.99991 (Simulation time: 0 hr 3 min 17 sec) 

Warmup complete CPU 0 instructions: 50000002 cycles: 12500290 (Simulation time: 0 hr 3 min 17 sec) 

Heartbeat CPU 0 instructions: 60000003 cycles: 28489578 heartbeat IPC: 0.625419 cumulative IPC: 0.625419 (Simulation time: 0 hr 4 min 22 sec) 
Heartbeat CPU 0 instructions: 70000000 cycles: 43604955 heartbeat IPC: 0.661578 cumulative IPC: 0.642991 (Simulation time: 0 hr 5 min 26 sec) 
Heartbeat CPU 0 instructions: 80000000 cycles: 58727848 heartbeat IPC: 0.66125 cumulative IPC: 0.648964 (Simulation time: 0 hr 6 min 30 sec) 
Heartbeat CPU 0 instructions: 90000002 cycles: 73250460 heartbeat IPC: 0.688582 cumulative IPC: 0.658435 (Simulation time: 0 hr 7 min 33 sec) 
Heartbeat CPU 0 instructions: 100000003 cycles: 88115945 heartbeat IPC: 0.6727 cumulative IPC: 0.661239 (Simulation time: 0 hr 8 min 38 sec) 
*** Reached end of trace: /gpfs/projects/bsc18/MN4/bsc18/romol/ChampSim/traces/qualcomm_srv/srv44_ap.champsimtrace.xz
Heartbeat CPU 0 instructions: 110000002 cycles: 103421975 heartbeat IPC: 0.653338 cumulative IPC: 0.659909 (Simulation time: 0 hr 9 min 44 sec) 
Heartbeat CPU 0 instructions: 120000000 cycles: 119363509 heartbeat IPC: 0.627293 cumulative IPC: 0.655043 (Simulation time: 0 hr 10 min 51 sec) 
Heartbeat CPU 0 instructions: 130000000 cycles: 133932877 heartbeat IPC: 0.686372 cumulative IPC: 0.658802 (Simulation time: 0 hr 11 min 56 sec) 
Heartbeat CPU 0 instructions: 140000001 cycles: 148136397 heartbeat IPC: 0.704051 cumulative IPC: 0.663541 (Simulation time: 0 hr 13 min 0 sec) 
Heartbeat CPU 0 instructions: 150000000 cycles: 163213584 heartbeat IPC: 0.663254 cumulative IPC: 0.663512 (Simulation time: 0 hr 14 min 6 sec) 
Simulation finished CPU 0 instructions: 100000001 cycles: 150713296 cumulative IPC: 0.663512 (Simulation time: 0 hr 14 min 6 sec) 

Simulation complete CPU 0 instructions: 100000001 cycles: 150713296 (Simulation time: 0 hr 14 min 6 sec) 


ChampSim completed all CPUs

Saving instructions large page distribution to /home/bsc/bsc018186/scratch/itp_asplos25_AE/dump/srv44_ap.pdst...
Saving data large page distribution to /home/bsc/bsc018186/scratch/itp_asplos25_AE/dump/srv44_ap.pdst...
=== Simulation ===
CPU 0 runs /gpfs/projects/bsc18/MN4/bsc18/romol/ChampSim/traces/qualcomm_srv/srv44_ap.champsimtrace.xz

Region of Interest Statistics

CPU 0 cumulative IPC: 0.663512 instructions: 100000001 cycles: 150713296
CPU 0 Branch Prediction Accuracy: 82.6949% MPKI: 31.0017 Average ROB Occupancy at Mispredict: 13.2884
Branch type MPKI
BRANCH_DIRECT_JUMP: 1.04265
BRANCH_INDIRECT: 15.9928
BRANCH_CONDITIONAL: 10.2125
BRANCH_DIRECT_CALL: 1.88784
BRANCH_INDIRECT_CALL: 0.51582
BRANCH_RETURN: 1.35007

Instructions large pages: 0
Instructions small pages: 962
Large page distribution for instructions: 0%

Data large pages: 0
Data small pages: 9382
Large page distribution for data: 0%

cpu0_L1I TOTAL       ACCESS:   35190836  HIT:   27346583  MISS:    7844253  iACCESS:   35190836  iHIT:   27346583  iMISS:    7844253  dACCESS:          0  dHIT:          0  dMISS:          0  itACCESS:          0  itHIT:          0  itMISS:          0  dtACCESS:          0  dtHIT:          0  dtMISS:          0
cpu0_L1I LOAD         ACCESS:   10329592  HIT:    8127715  MISS:    2201877  iACCESS:   10329592  iHIT:    8127715  iMISS:    2201877  dACCESS:          0  dHIT:          0  dMISS:          0  itACCESS:          0  itHIT:          0  itMISS:          0  dtACCESS:          0  dtHIT:          0  dtMISS:          0
cpu0_L1I RFO          ACCESS:          0  HIT:          0  MISS:          0  iACCESS:          0  iHIT:          0  iMISS:          0  dACCESS:          0  dHIT:          0  dMISS:          0  itACCESS:          0  itHIT:          0  itMISS:          0  dtACCESS:          0  dtHIT:          0  dtMISS:          0
cpu0_L1I PREFETCH     ACCESS:   24861244  HIT:   19218868  MISS:    5642376  iACCESS:   24861244  iHIT:   19218868  iMISS:    5642376  dACCESS:          0  dHIT:          0  dMISS:          0  itACCESS:          0  itHIT:          0  itMISS:          0  dtACCESS:          0  dtHIT:          0  dtMISS:          0
cpu0_L1I WRITE        ACCESS:          0  HIT:          0  MISS:          0  iACCESS:          0  iHIT:          0  iMISS:          0  dACCESS:          0  dHIT:          0  dMISS:          0  itACCESS:          0  itHIT:          0  itMISS:          0  dtACCESS:          0  dtHIT:          0  dtMISS:          0
cpu0_L1I TRANSLATION  ACCESS:          0  HIT:          0  MISS:          0  iACCESS:          0  iHIT:          0  iMISS:          0  dACCESS:          0  dHIT:          0  dMISS:          0  itACCESS:          0  itHIT:          0  itMISS:          0  dtACCESS:          0  dtHIT:          0  dtMISS:          0
cpu0_L1I PREFETCH  REQUESTED:   27402781  ISSUED:   27402781  CROSSED:          0  USEFUL:    1935522  USELESS:     627993
cpu0_L1I AVERAGE iMISS LATENCY: 12.5364 cycles
cpu0_L1I AVERAGE dMISS LATENCY: 0 cycles
cpu0_L1I AVERAGE itMISS LATENCY: 0 cycles
cpu0_L1I AVERAGE dtMISS LATENCY: 0 cycles
cpu0_L1I PAGE CROSSINGS (TLB HIT):         0 
cpu0_L1I PAGE CROSSINGS (TLB MISS):         0 
cpu0_L1I AVERAGE MISS LATENCY: 12.5364 cycles
cpu0_ITLB TOTAL       ACCESS:   29382165  HIT:   27441775  MISS:    1940390  iACCESS:   29382165  iHIT:   27441775  iMISS:    1940390  dACCESS:          0  dHIT:          0  dMISS:          0  itACCESS:          0  itHIT:          0  itMISS:          0  dtACCESS:          0  dtHIT:          0  dtMISS:          0
cpu0_ITLB LOAD         ACCESS:   29382165  HIT:   27441775  MISS:    1940390  iACCESS:   29382165  iHIT:   27441775  iMISS:    1940390  dACCESS:          0  dHIT:          0  dMISS:          0  itACCESS:          0  itHIT:          0  itMISS:          0  dtACCESS:          0  dtHIT:          0  dtMISS:          0
cpu0_ITLB RFO          ACCESS:          0  HIT:          0  MISS:          0  iACCESS:          0  iHIT:          0  iMISS:          0  dACCESS:          0  dHIT:          0  dMISS:          0  itACCESS:          0  itHIT:          0  itMISS:          0  dtACCESS:          0  dtHIT:          0  dtMISS:          0
cpu0_ITLB PREFETCH     ACCESS:          0  HIT:          0  MISS:          0  iACCESS:          0  iHIT:          0  iMISS:          0  dACCESS:          0  dHIT:          0  dMISS:          0  itACCESS:          0  itHIT:          0  itMISS:          0  dtACCESS:          0  dtHIT:          0  dtMISS:          0
cpu0_ITLB WRITE        ACCESS:          0  HIT:          0  MISS:          0  iACCESS:          0  iHIT:          0  iMISS:          0  dACCESS:          0  dHIT:          0  dMISS:          0  itACCESS:          0  itHIT:          0  itMISS:          0  dtACCESS:          0  dtHIT:          0  dtMISS:          0
cpu0_ITLB TRANSLATION  ACCESS:          0  HIT:          0  MISS:          0  iACCESS:          0  iHIT:          0  iMISS:          0  dACCESS:          0  dHIT:          0  dMISS:          0  itACCESS:          0  itHIT:          0  itMISS:          0  dtACCESS:          0  dtHIT:          0  dtMISS:          0
cpu0_ITLB PREFETCH  REQUESTED:          0  ISSUED:          0  CROSSED:          0  USEFUL:     316941  USELESS:      64054
cpu0_ITLB AVERAGE iMISS LATENCY: 2.20091 cycles
cpu0_ITLB AVERAGE dMISS LATENCY: 0 cycles
cpu0_ITLB AVERAGE itMISS LATENCY: 0 cycles
cpu0_ITLB AVERAGE dtMISS LATENCY: 0 cycles
cpu0_ITLB PAGE CROSSINGS (TLB HIT):         0 
cpu0_ITLB PAGE CROSSINGS (TLB MISS):         0 
cpu0_ITLB AVERAGE MISS LATENCY: 2.20091 cycles
cpu0_DTLB TOTAL       ACCESS:   27826257  HIT:   26021032  MISS:    1805225  iACCESS:          0  iHIT:          0  iMISS:          0  dACCESS:   27826257  dHIT:   26021032  dMISS:    1805225  itACCESS:          0  itHIT:          0  itMISS:          0  dtACCESS:          0  dtHIT:          0  dtMISS:          0
cpu0_DTLB LOAD         ACCESS:   27826257  HIT:   26021032  MISS:    1805225  iACCESS:          0  iHIT:          0  iMISS:          0  dACCESS:   27826257  dHIT:   26021032  dMISS:    1805225  itACCESS:          0  itHIT:          0  itMISS:          0  dtACCESS:          0  dtHIT:          0  dtMISS:          0
cpu0_DTLB RFO          ACCESS:          0  HIT:          0  MISS:          0  iACCESS:          0  iHIT:          0  iMISS:          0  dACCESS:          0  dHIT:          0  dMISS:          0  itACCESS:          0  itHIT:          0  itMISS:          0  dtACCESS:          0  dtHIT:          0  dtMISS:          0
cpu0_DTLB PREFETCH     ACCESS:          0  HIT:          0  MISS:          0  iACCESS:          0  iHIT:          0  iMISS:          0  dACCESS:          0  dHIT:          0  dMISS:          0  itACCESS:          0  itHIT:          0  itMISS:          0  dtACCESS:          0  dtHIT:          0  dtMISS:          0
cpu0_DTLB WRITE        ACCESS:          0  HIT:          0  MISS:          0  iACCESS:          0  iHIT:          0  iMISS:          0  dACCESS:          0  dHIT:          0  dMISS:          0  itACCESS:          0  itHIT:          0  itMISS:          0  dtACCESS:          0  dtHIT:          0  dtMISS:          0
cpu0_DTLB TRANSLATION  ACCESS:          0  HIT:          0  MISS:          0  iACCESS:          0  iHIT:          0  iMISS:          0  dACCESS:          0  dHIT:          0  dMISS:          0  itACCESS:          0  itHIT:          0  itMISS:          0  dtACCESS:          0  dtHIT:          0  dtMISS:          0
cpu0_DTLB PREFETCH  REQUESTED:          0  ISSUED:          0  CROSSED:          0  USEFUL:          0  USELESS:          0
cpu0_DTLB AVERAGE iMISS LATENCY: 0 cycles
cpu0_DTLB AVERAGE dMISS LATENCY: 18.0545 cycles
cpu0_DTLB AVERAGE itMISS LATENCY: 0 cycles
cpu0_DTLB AVERAGE dtMISS LATENCY: 0 cycles
cpu0_DTLB PAGE CROSSINGS (TLB HIT):         0 
cpu0_DTLB PAGE CROSSINGS (TLB MISS):         0 
cpu0_DTLB AVERAGE MISS LATENCY: 18.0545 cycles
cpu0_STLB TOTAL       ACCESS:    1465313  HIT:    1319423  MISS:     145890  iACCESS:     381002  iHIT:     372246  iMISS:       8756  dACCESS:    1084311  dHIT:     947177  dMISS:     137134  itACCESS:          0  itHIT:          0  itMISS:          0  dtACCESS:          0  dtHIT:          0  dtMISS:          0
cpu0_STLB LOAD         ACCESS:    1465313  HIT:    1319423  MISS:     145890  iACCESS:     381002  iHIT:     372246  iMISS:       8756  dACCESS:    1084311  dHIT:     947177  dMISS:     137134  itACCESS:          0  itHIT:          0  itMISS:          0  dtACCESS:          0  dtHIT:          0  dtMISS:          0
cpu0_STLB RFO          ACCESS:          0  HIT:          0  MISS:          0  iACCESS:          0  iHIT:          0  iMISS:          0  dACCESS:          0  dHIT:          0  dMISS:          0  itACCESS:          0  itHIT:          0  itMISS:          0  dtACCESS:          0  dtHIT:          0  dtMISS:          0
cpu0_STLB PREFETCH     ACCESS:          0  HIT:          0  MISS:          0  iACCESS:          0  iHIT:          0  iMISS:          0  dACCESS:          0  dHIT:          0  dMISS:          0  itACCESS:          0  itHIT:          0  itMISS:          0  dtACCESS:          0  dtHIT:          0  dtMISS:          0
cpu0_STLB WRITE        ACCESS:          0  HIT:          0  MISS:          0  iACCESS:          0  iHIT:          0  iMISS:          0  dACCESS:          0  dHIT:          0  dMISS:          0  itACCESS:          0  itHIT:          0  itMISS:          0  dtACCESS:          0  dtHIT:          0  dtMISS:          0
cpu0_STLB TRANSLATION  ACCESS:          0  HIT:          0  MISS:          0  iACCESS:          0  iHIT:          0  iMISS:          0  dACCESS:          0  dHIT:          0  dMISS:          0  itACCESS:          0  itHIT:          0  itMISS:          0  dtACCESS:          0  dtHIT:          0  dtMISS:          0
cpu0_STLB PREFETCH  REQUESTED:          0  ISSUED:          0  CROSSED:          0  USEFUL:          0  USELESS:          0
cpu0_STLB AVERAGE iMISS LATENCY: 9.0265 cycles
cpu0_STLB AVERAGE dMISS LATENCY: 163.907 cycles
cpu0_STLB AVERAGE itMISS LATENCY: 0 cycles
cpu0_STLB AVERAGE dtMISS LATENCY: 0 cycles
cpu0_STLB PAGE CROSSINGS (TLB HIT):         0 
cpu0_STLB PAGE CROSSINGS (TLB MISS):         0 
cpu0_STLB AVERAGE MISS LATENCY: 172.934 cycles
cpu0_L1D TOTAL       ACCESS:   41507457  HIT:   38092079  MISS:    3415378  iACCESS:          0  iHIT:          0  iMISS:          0  dACCESS:   41294837  dHIT:   38079075  dMISS:    3215762  itACCESS:      10317  itHIT:       1026  itMISS:       9291  dtACCESS:     202303  dtHIT:      11978  dtMISS:     190325
cpu0_L1D LOAD         ACCESS:   19030280  HIT:   17563515  MISS:    1466765  iACCESS:          0  iHIT:          0  iMISS:          0  dACCESS:   19030280  dHIT:   17563515  dMISS:    1466765  itACCESS:          0  itHIT:          0  itMISS:          0  dtACCESS:          0  dtHIT:          0  dtMISS:          0
cpu0_L1D RFO          ACCESS:          0  HIT:          0  MISS:          0  iACCESS:          0  iHIT:          0  iMISS:          0  dACCESS:          0  dHIT:          0  dMISS:          0  itACCESS:          0  itHIT:          0  itMISS:          0  dtACCESS:          0  dtHIT:          0  dtMISS:          0
cpu0_L1D PREFETCH     ACCESS:   12075350  HIT:   10757214  MISS:    1318136  iACCESS:          0  iHIT:          0  iMISS:          0  dACCESS:   12075350  dHIT:   10757214  dMISS:    1318136  itACCESS:          0  itHIT:          0  itMISS:          0  dtACCESS:          0  dtHIT:          0  dtMISS:          0
cpu0_L1D WRITE        ACCESS:   10189207  HIT:    9758346  MISS:     430861  iACCESS:          0  iHIT:          0  iMISS:          0  dACCESS:   10189207  dHIT:    9758346  dMISS:     430861  itACCESS:          0  itHIT:          0  itMISS:          0  dtACCESS:          0  dtHIT:          0  dtMISS:          0
cpu0_L1D TRANSLATION  ACCESS:     212620  HIT:      13004  MISS:     199616  iACCESS:          0  iHIT:          0  iMISS:          0  dACCESS:          0  dHIT:          0  dMISS:          0  itACCESS:      10317  itHIT:       1026  itMISS:       9291  dtACCESS:     202303  dtHIT:      11978  dtMISS:     190325
cpu0_L1D PREFETCH  REQUESTED:   19030280  ISSUED:   16869364  CROSSED:          0  USEFUL:     306955  USELESS:     698687
cpu0_L1D AVERAGE iMISS LATENCY: 0 cycles
cpu0_L1D AVERAGE dMISS LATENCY: 33.4791 cycles
cpu0_L1D AVERAGE itMISS LATENCY: 0.359662 cycles
cpu0_L1D AVERAGE dtMISS LATENCY: 6.23541 cycles
cpu0_L1D PAGE CROSSINGS (TLB HIT):         0 
cpu0_L1D PAGE CROSSINGS (TLB MISS):         0 
cpu0_L1D AVERAGE MISS LATENCY: 40.0741 cycles
cpu0_L2C TOTAL       ACCESS:    6991240  HIT:    4063009  MISS:    2928231  iACCESS:    3309476  iHIT:    2221739  iMISS:    1087737  dACCESS:    3489997  dHIT:    1808863  dMISS:    1681134  itACCESS:       9291  itHIT:       1668  itMISS:       7623  dtACCESS:     182476  dtHIT:      30739  dtMISS:     151737
cpu0_L2C LOAD         ACCESS:    1713225  HIT:    1033618  MISS:     679607  iACCESS:     786716  iHIT:     557851  iMISS:     228865  dACCESS:     926509  dHIT:     475767  dMISS:     450742  itACCESS:          0  itHIT:          0  itMISS:          0  dtACCESS:          0  dtHIT:          0  dtMISS:          0
cpu0_L2C RFO          ACCESS:     158345  HIT:      71372  MISS:      86973  iACCESS:          0  iHIT:          0  iMISS:          0  dACCESS:     158345  dHIT:      71372  dMISS:      86973  itACCESS:          0  itHIT:          0  itMISS:          0  dtACCESS:          0  dtHIT:          0  dtMISS:          0
cpu0_L2C PREFETCH     ACCESS:    4646512  HIT:    2645688  MISS:    2000824  iACCESS:    2522760  iHIT:    1663888  iMISS:     858872  dACCESS:    2123752  dHIT:     981800  dMISS:    1141952  itACCESS:          0  itHIT:          0  itMISS:          0  dtACCESS:          0  dtHIT:          0  dtMISS:          0
cpu0_L2C WRITE        ACCESS:     281391  HIT:     279924  MISS:       1467  iACCESS:          0  iHIT:          0  iMISS:          0  dACCESS:     281391  dHIT:     279924  dMISS:       1467  itACCESS:          0  itHIT:          0  itMISS:          0  dtACCESS:          0  dtHIT:          0  dtMISS:          0
cpu0_L2C TRANSLATION  ACCESS:     191767  HIT:      32407  MISS:     159360  iACCESS:          0  iHIT:          0  iMISS:          0  dACCESS:          0  dHIT:          0  dMISS:          0  itACCESS:       9291  itHIT:       1668  itMISS:       7623  dtACCESS:     182476  dtHIT:      30739  dtMISS:     151737
cpu0_L2C PREFETCH  REQUESTED:    1380669  ISSUED:    1380669  CROSSED:          0  USEFUL:     331835  USELESS:     231338
cpu0_L2C AVERAGE iMISS LATENCY: 23.4839 cycles
cpu0_L2C AVERAGE dMISS LATENCY: 45.5246 cycles
cpu0_L2C AVERAGE itMISS LATENCY: 0.388228 cycles
cpu0_L2C AVERAGE dtMISS LATENCY: 6.65545 cycles
cpu0_L2C PAGE CROSSINGS (TLB HIT):         0 
cpu0_L2C PAGE CROSSINGS (TLB MISS):         0 
cpu0_L2C AVERAGE MISS LATENCY: 76.0521 cycles
LLC TOTAL       ACCESS:    2958429  HIT:    1893799  MISS:    1064630  iACCESS:    1034937  iHIT:     702788  iMISS:     332149  dACCESS:    1764132  dHIT:    1129989  dMISS:     634143  itACCESS:       7623  itHIT:       2031  itMISS:       5592  dtACCESS:     151737  dtHIT:      58991  dtMISS:      92746
LLC LOAD         ACCESS:     678114  HIT:     444409  MISS:     233705  iACCESS:     227575  iHIT:     155671  iMISS:      71904  dACCESS:     450539  dHIT:     288738  dMISS:     161801  itACCESS:          0  itHIT:          0  itMISS:          0  dtACCESS:          0  dtHIT:          0  dtMISS:          0
LLC RFO          ACCESS:      86959  HIT:      47676  MISS:      39283  iACCESS:          0  iHIT:          0  iMISS:          0  dACCESS:      86959  dHIT:      47676  dMISS:      39283  itACCESS:          0  itHIT:          0  itMISS:          0  dtACCESS:          0  dtHIT:          0  dtMISS:          0
LLC PREFETCH     ACCESS:    1899645  HIT:    1213810  MISS:     685835  iACCESS:     807362  iHIT:     547117  iMISS:     260245  dACCESS:    1092283  dHIT:     666693  dMISS:     425590  itACCESS:          0  itHIT:          0  itMISS:          0  dtACCESS:          0  dtHIT:          0  dtMISS:          0
LLC WRITE        ACCESS:     134351  HIT:     126882  MISS:       7469  iACCESS:          0  iHIT:          0  iMISS:          0  dACCESS:     134351  dHIT:     126882  dMISS:       7469  itACCESS:          0  itHIT:          0  itMISS:          0  dtACCESS:          0  dtHIT:          0  dtMISS:          0
LLC TRANSLATION  ACCESS:     159360  HIT:      61022  MISS:      98338  iACCESS:          0  iHIT:          0  iMISS:          0  dACCESS:          0  dHIT:          0  dMISS:          0  itACCESS:       7623  itHIT:       2031  itMISS:       5592  dtACCESS:     151737  dtHIT:      58991  dtMISS:      92746
LLC PREFETCH  REQUESTED:          0  ISSUED:          0  CROSSED:          0  USEFUL:          0  USELESS:          0
LLC AVERAGE iMISS LATENCY: 45.7178 cycles
LLC AVERAGE dMISS LATENCY: 95.5648 cycles
LLC AVERAGE itMISS LATENCY: 0.926976 cycles
LLC AVERAGE dtMISS LATENCY: 15.5173 cycles
LLC PAGE CROSSINGS (TLB HIT):         0 
LLC PAGE CROSSINGS (TLB MISS):         0 
LLC AVERAGE MISS LATENCY: 157.727 cycles

PageTableWalker TOTAL       ACCESS:      71606  
PageTableWalker AVERAGE LATENCY: 5.69658 cycles
PageTableWalker TOTAL LATENCY: 407909 cycles

DRAM Statistics
Channel 0
 RQ ROW_BUFFER_HIT:     285246
  ROW_BUFFER_MISS:     771865
 AVG DBUS CONGESTED CYCLE:    3.62147
 WQ ROW_BUFFER_HIT:      20908
  ROW_BUFFER_MISS:      20788  FULL:          0

