last_page:0x200000000000000
VMEM_RES_CAP:0x100000
PAGE_SIZE:4096
LOG2_PAGE_SIZE:12
LOG2_PAGE_TABLE_SIZE:9
page_table_levels:5
WARNING: physical memory size is smaller than virtual memory size
FDiP enabled with aggresivity 16

*** ChampSim Multicore Out-of-Order Simulator ***

Warmup Instructions: 50000000
Simulation Instructions: 100000000
Number of CPUs: 1
Small page size: 4096
Large page size: 2097152

CPU 0 Bimodal branch predictor
Basic BTB sets: 1024 ways: 8 indirect buffer size: 4096 RAS size: 64
Instruction page size distrubution: 0
Loading instruction page size distribution from /home/bsc/bsc018186/scratch/itp_asplos25_AE/dump/srv403_ap.pdst
Data page size distrubution: 0
Loading data page size distribution from /home/bsc/bsc018186/scratch/itp_asplos25_AE/dump/srv403_ap.pdst
cpu0_L2C IP-based stride prefetcher
cpu0_L1D next line prefetcher
cpu0_STLB using iTP with max lru@8
cpu0_STLB using iTP with instr@0 and data@2
Init sat counter with 3 bits (max:50).
cpu0_L1I next line prefetcher
Off-chip DRAM Size: 4 GiB Channels: 1 Width: 64-bit Data Rate: 3200 MT/s
Heartbeat CPU 0 instructions: 10000002 cycles: 2500239 heartbeat IPC: 3.99962 cumulative IPC: 3.99962 (Simulation time: 0 hr 0 min 37 sec) 
Heartbeat CPU 0 instructions: 20000000 cycles: 5000280 heartbeat IPC: 3.99994 cumulative IPC: 3.99978 (Simulation time: 0 hr 1 min 16 sec) 
Heartbeat CPU 0 instructions: 30000001 cycles: 7500360 heartbeat IPC: 3.99988 cumulative IPC: 3.99981 (Simulation time: 0 hr 1 min 56 sec) 
Heartbeat CPU 0 instructions: 40000002 cycles: 10000361 heartbeat IPC: 4 cumulative IPC: 3.99986 (Simulation time: 0 hr 2 min 36 sec) 
Heartbeat CPU 0 instructions: 50000000 cycles: 12500373 heartbeat IPC: 3.99999 cumulative IPC: 3.99989 (Simulation time: 0 hr 3 min 17 sec) 
Warmup finished CPU 0 instructions: 50000000 cycles: 12500374 cumulative IPC: 3.99989 (Simulation time: 0 hr 3 min 17 sec) 

Warmup complete CPU 0 instructions: 50000000 cycles: 12500374 (Simulation time: 0 hr 3 min 17 sec) 

Heartbeat CPU 0 instructions: 60000001 cycles: 26602302 heartbeat IPC: 0.709123 cumulative IPC: 0.709123 (Simulation time: 0 hr 4 min 20 sec) 
Heartbeat CPU 0 instructions: 70000000 cycles: 40403833 heartbeat IPC: 0.724558 cumulative IPC: 0.716758 (Simulation time: 0 hr 5 min 23 sec) 
Heartbeat CPU 0 instructions: 80000000 cycles: 54668943 heartbeat IPC: 0.701012 cumulative IPC: 0.711431 (Simulation time: 0 hr 6 min 27 sec) 
Heartbeat CPU 0 instructions: 90000002 cycles: 69420094 heartbeat IPC: 0.677914 cumulative IPC: 0.702745 (Simulation time: 0 hr 7 min 32 sec) 
Heartbeat CPU 0 instructions: 100000004 cycles: 83665185 heartbeat IPC: 0.701997 cumulative IPC: 0.702595 (Simulation time: 0 hr 8 min 36 sec) 
*** Reached end of trace: /gpfs/projects/bsc18/MN4/bsc18/romol/ChampSim/traces/qualcomm_srv/srv403_ap.champsimtrace.xz
Heartbeat CPU 0 instructions: 110000000 cycles: 98206052 heartbeat IPC: 0.687717 cumulative IPC: 0.700071 (Simulation time: 0 hr 9 min 41 sec) 
Heartbeat CPU 0 instructions: 120000000 cycles: 112017482 heartbeat IPC: 0.724038 cumulative IPC: 0.703397 (Simulation time: 0 hr 10 min 44 sec) 
Heartbeat CPU 0 instructions: 130000001 cycles: 126002337 heartbeat IPC: 0.71506 cumulative IPC: 0.704834 (Simulation time: 0 hr 11 min 47 sec) 
Heartbeat CPU 0 instructions: 140000000 cycles: 140800858 heartbeat IPC: 0.675744 cumulative IPC: 0.701479 (Simulation time: 0 hr 12 min 52 sec) 
Heartbeat CPU 0 instructions: 150000004 cycles: 154799861 heartbeat IPC: 0.714337 cumulative IPC: 0.702744 (Simulation time: 0 hr 13 min 55 sec) 
Simulation finished CPU 0 instructions: 100000004 cycles: 142299488 cumulative IPC: 0.702744 (Simulation time: 0 hr 13 min 55 sec) 

Simulation complete CPU 0 instructions: 100000004 cycles: 142299488 (Simulation time: 0 hr 13 min 55 sec) 


ChampSim completed all CPUs

Saving instructions large page distribution to /home/bsc/bsc018186/scratch/itp_asplos25_AE/dump/srv403_ap.pdst...
Saving data large page distribution to /home/bsc/bsc018186/scratch/itp_asplos25_AE/dump/srv403_ap.pdst...
=== Simulation ===
CPU 0 runs /gpfs/projects/bsc18/MN4/bsc18/romol/ChampSim/traces/qualcomm_srv/srv403_ap.champsimtrace.xz

Region of Interest Statistics

CPU 0 cumulative IPC: 0.702744 instructions: 100000004 cycles: 142299488
CPU 0 Branch Prediction Accuracy: 82.8226% MPKI: 30.6827 Average ROB Occupancy at Mispredict: 12.393
Branch type MPKI
BRANCH_DIRECT_JUMP: 1.04485
BRANCH_INDIRECT: 15.6331
BRANCH_CONDITIONAL: 10.2335
BRANCH_DIRECT_CALL: 1.90047
BRANCH_INDIRECT_CALL: 0.51571
BRANCH_RETURN: 1.35517

Instructions large pages: 0
Instructions small pages: 999
Large page distribution for instructions: 0%

Data large pages: 0
Data small pages: 9945
Large page distribution for data: 0%

cpu0_L1I TOTAL       ACCESS:   35433183  HIT:   27017563  MISS:    8415620  iACCESS:   35433183  iHIT:   27017563  iMISS:    8415620  dACCESS:          0  dHIT:          0  dMISS:          0  itACCESS:          0  itHIT:          0  itMISS:          0  dtACCESS:          0  dtHIT:          0  dtMISS:          0
cpu0_L1I LOAD         ACCESS:   10381212  HIT:    8028784  MISS:    2352428  iACCESS:   10381212  iHIT:    8028784  iMISS:    2352428  dACCESS:          0  dHIT:          0  dMISS:          0  itACCESS:          0  itHIT:          0  itMISS:          0  dtACCESS:          0  dtHIT:          0  dtMISS:          0
cpu0_L1I RFO          ACCESS:          0  HIT:          0  MISS:          0  iACCESS:          0  iHIT:          0  iMISS:          0  dACCESS:          0  dHIT:          0  dMISS:          0  itACCESS:          0  itHIT:          0  itMISS:          0  dtACCESS:          0  dtHIT:          0  dtMISS:          0
cpu0_L1I PREFETCH     ACCESS:   25051971  HIT:   18988779  MISS:    6063192  iACCESS:   25051971  iHIT:   18988779  iMISS:    6063192  dACCESS:          0  dHIT:          0  dMISS:          0  itACCESS:          0  itHIT:          0  itMISS:          0  dtACCESS:          0  dtHIT:          0  dtMISS:          0
cpu0_L1I WRITE        ACCESS:          0  HIT:          0  MISS:          0  iACCESS:          0  iHIT:          0  iMISS:          0  dACCESS:          0  dHIT:          0  dMISS:          0  itACCESS:          0  itHIT:          0  itMISS:          0  dtACCESS:          0  dtHIT:          0  dtMISS:          0
cpu0_L1I TRANSLATION  ACCESS:          0  HIT:          0  MISS:          0  iACCESS:          0  iHIT:          0  iMISS:          0  dACCESS:          0  dHIT:          0  dMISS:          0  itACCESS:          0  itHIT:          0  itMISS:          0  dtACCESS:          0  dtHIT:          0  dtMISS:          0
cpu0_L1I PREFETCH  REQUESTED:   27365418  ISSUED:   27362826  CROSSED:          0  USEFUL:    1945042  USELESS:     625424
cpu0_L1I AVERAGE iMISS LATENCY: 13.5564 cycles
cpu0_L1I AVERAGE dMISS LATENCY: 0 cycles
cpu0_L1I AVERAGE itMISS LATENCY: 0 cycles
cpu0_L1I AVERAGE dtMISS LATENCY: 0 cycles
cpu0_L1I PAGE CROSSINGS (TLB HIT):         0 
cpu0_L1I PAGE CROSSINGS (TLB MISS):         0 
cpu0_L1I AVERAGE MISS LATENCY: 13.5564 cycles
cpu0_ITLB TOTAL       ACCESS:   29325996  HIT:   27407854  MISS:    1918142  iACCESS:   29325996  iHIT:   27407854  iMISS:    1918142  dACCESS:          0  dHIT:          0  dMISS:          0  itACCESS:          0  itHIT:          0  itMISS:          0  dtACCESS:          0  dtHIT:          0  dtMISS:          0
cpu0_ITLB LOAD         ACCESS:   29325996  HIT:   27407854  MISS:    1918142  iACCESS:   29325996  iHIT:   27407854  iMISS:    1918142  dACCESS:          0  dHIT:          0  dMISS:          0  itACCESS:          0  itHIT:          0  itMISS:          0  dtACCESS:          0  dtHIT:          0  dtMISS:          0
cpu0_ITLB RFO          ACCESS:          0  HIT:          0  MISS:          0  iACCESS:          0  iHIT:          0  iMISS:          0  dACCESS:          0  dHIT:          0  dMISS:          0  itACCESS:          0  itHIT:          0  itMISS:          0  dtACCESS:          0  dtHIT:          0  dtMISS:          0
cpu0_ITLB PREFETCH     ACCESS:          0  HIT:          0  MISS:          0  iACCESS:          0  iHIT:          0  iMISS:          0  dACCESS:          0  dHIT:          0  dMISS:          0  itACCESS:          0  itHIT:          0  itMISS:          0  dtACCESS:          0  dtHIT:          0  dtMISS:          0
cpu0_ITLB WRITE        ACCESS:          0  HIT:          0  MISS:          0  iACCESS:          0  iHIT:          0  iMISS:          0  dACCESS:          0  dHIT:          0  dMISS:          0  itACCESS:          0  itHIT:          0  itMISS:          0  dtACCESS:          0  dtHIT:          0  dtMISS:          0
cpu0_ITLB TRANSLATION  ACCESS:          0  HIT:          0  MISS:          0  iACCESS:          0  iHIT:          0  iMISS:          0  dACCESS:          0  dHIT:          0  dMISS:          0  itACCESS:          0  itHIT:          0  itMISS:          0  dtACCESS:          0  dtHIT:          0  dtMISS:          0
cpu0_ITLB PREFETCH  REQUESTED:          0  ISSUED:          0  CROSSED:          0  USEFUL:     316910  USELESS:      63663
cpu0_ITLB AVERAGE iMISS LATENCY: 1.96087 cycles
cpu0_ITLB AVERAGE dMISS LATENCY: 0 cycles
cpu0_ITLB AVERAGE itMISS LATENCY: 0 cycles
cpu0_ITLB AVERAGE dtMISS LATENCY: 0 cycles
cpu0_ITLB PAGE CROSSINGS (TLB HIT):         0 
cpu0_ITLB PAGE CROSSINGS (TLB MISS):         0 
cpu0_ITLB AVERAGE MISS LATENCY: 1.96087 cycles
cpu0_DTLB TOTAL       ACCESS:   27741634  HIT:   25651494  MISS:    2090140  iACCESS:          0  iHIT:          0  iMISS:          0  dACCESS:   27741634  dHIT:   25651494  dMISS:    2090140  itACCESS:          0  itHIT:          0  itMISS:          0  dtACCESS:          0  dtHIT:          0  dtMISS:          0
cpu0_DTLB LOAD         ACCESS:   27741634  HIT:   25651494  MISS:    2090140  iACCESS:          0  iHIT:          0  iMISS:          0  dACCESS:   27741634  dHIT:   25651494  dMISS:    2090140  itACCESS:          0  itHIT:          0  itMISS:          0  dtACCESS:          0  dtHIT:          0  dtMISS:          0
cpu0_DTLB RFO          ACCESS:          0  HIT:          0  MISS:          0  iACCESS:          0  iHIT:          0  iMISS:          0  dACCESS:          0  dHIT:          0  dMISS:          0  itACCESS:          0  itHIT:          0  itMISS:          0  dtACCESS:          0  dtHIT:          0  dtMISS:          0
cpu0_DTLB PREFETCH     ACCESS:          0  HIT:          0  MISS:          0  iACCESS:          0  iHIT:          0  iMISS:          0  dACCESS:          0  dHIT:          0  dMISS:          0  itACCESS:          0  itHIT:          0  itMISS:          0  dtACCESS:          0  dtHIT:          0  dtMISS:          0
cpu0_DTLB WRITE        ACCESS:          0  HIT:          0  MISS:          0  iACCESS:          0  iHIT:          0  iMISS:          0  dACCESS:          0  dHIT:          0  dMISS:          0  itACCESS:          0  itHIT:          0  itMISS:          0  dtACCESS:          0  dtHIT:          0  dtMISS:          0
cpu0_DTLB TRANSLATION  ACCESS:          0  HIT:          0  MISS:          0  iACCESS:          0  iHIT:          0  iMISS:          0  dACCESS:          0  dHIT:          0  dMISS:          0  itACCESS:          0  itHIT:          0  itMISS:          0  dtACCESS:          0  dtHIT:          0  dtMISS:          0
cpu0_DTLB PREFETCH  REQUESTED:          0  ISSUED:          0  CROSSED:          0  USEFUL:          0  USELESS:          0
cpu0_DTLB AVERAGE iMISS LATENCY: 0 cycles
cpu0_DTLB AVERAGE dMISS LATENCY: 11.05 cycles
cpu0_DTLB AVERAGE itMISS LATENCY: 0 cycles
cpu0_DTLB AVERAGE dtMISS LATENCY: 0 cycles
cpu0_DTLB PAGE CROSSINGS (TLB HIT):         0 
cpu0_DTLB PAGE CROSSINGS (TLB MISS):         0 
cpu0_DTLB AVERAGE MISS LATENCY: 11.05 cycles
cpu0_STLB TOTAL       ACCESS:    1623702  HIT:    1479306  MISS:     144396  iACCESS:     380617  iHIT:     372379  iMISS:       8238  dACCESS:    1243085  dHIT:    1106927  dMISS:     136158  itACCESS:          0  itHIT:          0  itMISS:          0  dtACCESS:          0  dtHIT:          0  dtMISS:          0
cpu0_STLB LOAD         ACCESS:    1623702  HIT:    1479306  MISS:     144396  iACCESS:     380617  iHIT:     372379  iMISS:       8238  dACCESS:    1243085  dHIT:    1106927  dMISS:     136158  itACCESS:          0  itHIT:          0  itMISS:          0  dtACCESS:          0  dtHIT:          0  dtMISS:          0
cpu0_STLB RFO          ACCESS:          0  HIT:          0  MISS:          0  iACCESS:          0  iHIT:          0  iMISS:          0  dACCESS:          0  dHIT:          0  dMISS:          0  itACCESS:          0  itHIT:          0  itMISS:          0  dtACCESS:          0  dtHIT:          0  dtMISS:          0
cpu0_STLB PREFETCH     ACCESS:          0  HIT:          0  MISS:          0  iACCESS:          0  iHIT:          0  iMISS:          0  dACCESS:          0  dHIT:          0  dMISS:          0  itACCESS:          0  itHIT:          0  itMISS:          0  dtACCESS:          0  dtHIT:          0  dtMISS:          0
cpu0_STLB WRITE        ACCESS:          0  HIT:          0  MISS:          0  iACCESS:          0  iHIT:          0  iMISS:          0  dACCESS:          0  dHIT:          0  dMISS:          0  itACCESS:          0  itHIT:          0  itMISS:          0  dtACCESS:          0  dtHIT:          0  dtMISS:          0
cpu0_STLB TRANSLATION  ACCESS:          0  HIT:          0  MISS:          0  iACCESS:          0  iHIT:          0  iMISS:          0  dACCESS:          0  dHIT:          0  dMISS:          0  itACCESS:          0  itHIT:          0  itMISS:          0  dtACCESS:          0  dtHIT:          0  dtMISS:          0
cpu0_STLB PREFETCH  REQUESTED:          0  ISSUED:          0  CROSSED:          0  USEFUL:          0  USELESS:          0
cpu0_STLB AVERAGE iMISS LATENCY: 5.61943 cycles
cpu0_STLB AVERAGE dMISS LATENCY: 91.2222 cycles
cpu0_STLB AVERAGE itMISS LATENCY: 0 cycles
cpu0_STLB AVERAGE dtMISS LATENCY: 0 cycles
cpu0_STLB PAGE CROSSINGS (TLB HIT):         0 
cpu0_STLB PAGE CROSSINGS (TLB MISS):         0 
cpu0_STLB AVERAGE MISS LATENCY: 96.8416 cycles
cpu0_L1D TOTAL       ACCESS:   41490199  HIT:   38054025  MISS:    3436174  iACCESS:          0  iHIT:          0  iMISS:          0  dACCESS:   41276520  dHIT:   38040480  dMISS:    3236040  itACCESS:       9813  itHIT:       1041  itMISS:       8772  dtACCESS:     203866  dtHIT:      12504  dtMISS:     191362
cpu0_L1D LOAD         ACCESS:   18934162  HIT:   17455345  MISS:    1478817  iACCESS:          0  iHIT:          0  iMISS:          0  dACCESS:   18934162  dHIT:   17455345  dMISS:    1478817  itACCESS:          0  itHIT:          0  itMISS:          0  dtACCESS:          0  dtHIT:          0  dtMISS:          0
cpu0_L1D RFO          ACCESS:          0  HIT:          0  MISS:          0  iACCESS:          0  iHIT:          0  iMISS:          0  dACCESS:          0  dHIT:          0  dMISS:          0  itACCESS:          0  itHIT:          0  itMISS:          0  dtACCESS:          0  dtHIT:          0  dtMISS:          0
cpu0_L1D PREFETCH     ACCESS:   12185275  HIT:   10850965  MISS:    1334310  iACCESS:          0  iHIT:          0  iMISS:          0  dACCESS:   12185275  dHIT:   10850965  dMISS:    1334310  itACCESS:          0  itHIT:          0  itMISS:          0  dtACCESS:          0  dtHIT:          0  dtMISS:          0
cpu0_L1D WRITE        ACCESS:   10157083  HIT:    9734170  MISS:     422913  iACCESS:          0  iHIT:          0  iMISS:          0  dACCESS:   10157083  dHIT:    9734170  dMISS:     422913  itACCESS:          0  itHIT:          0  itMISS:          0  dtACCESS:          0  dtHIT:          0  dtMISS:          0
cpu0_L1D TRANSLATION  ACCESS:     213679  HIT:      13545  MISS:     200134  iACCESS:          0  iHIT:          0  iMISS:          0  dACCESS:          0  dHIT:          0  dMISS:          0  itACCESS:       9813  itHIT:       1041  itMISS:       8772  dtACCESS:     203866  dtHIT:      12504  dtMISS:     191362
cpu0_L1D PREFETCH  REQUESTED:   18934162  ISSUED:   17061642  CROSSED:          0  USEFUL:     307803  USELESS:     703431
cpu0_L1D AVERAGE iMISS LATENCY: 0 cycles
cpu0_L1D AVERAGE dMISS LATENCY: 33.8981 cycles
cpu0_L1D AVERAGE itMISS LATENCY: 0.210593 cycles
cpu0_L1D AVERAGE dtMISS LATENCY: 3.0423 cycles
cpu0_L1D PAGE CROSSINGS (TLB HIT):         0 
cpu0_L1D PAGE CROSSINGS (TLB MISS):         0 
cpu0_L1D AVERAGE MISS LATENCY: 37.151 cycles
cpu0_L2C TOTAL       ACCESS:    7004245  HIT:    1653437  MISS:    5350808  iACCESS:    3303092  iHIT:     839091  iMISS:    2464001  dACCESS:    3510311  dHIT:     713421  dMISS:    2796890  itACCESS:       8772  itHIT:       4298  itMISS:       4474  dtACCESS:     182070  dtHIT:      96627  dtMISS:      85443
cpu0_L2C LOAD         ACCESS:    1702987  HIT:     287471  MISS:    1415516  iACCESS:     771344  iHIT:     133866  iMISS:     637478  dACCESS:     931643  dHIT:     153605  dMISS:     778038  itACCESS:          0  itHIT:          0  itMISS:          0  dtACCESS:          0  dtHIT:          0  dtMISS:          0
cpu0_L2C RFO          ACCESS:     158948  HIT:      54531  MISS:     104417  iACCESS:          0  iHIT:          0  iMISS:          0  dACCESS:     158948  dHIT:      54531  dMISS:     104417  itACCESS:          0  itHIT:          0  itMISS:          0  dtACCESS:          0  dtHIT:          0  dtMISS:          0
cpu0_L2C PREFETCH     ACCESS:    4670825  HIT:    1070635  MISS:    3600190  iACCESS:    2531748  iHIT:     705225  iMISS:    1826523  dACCESS:    2139077  dHIT:     365410  dMISS:    1773667  itACCESS:          0  itHIT:          0  itMISS:          0  dtACCESS:          0  dtHIT:          0  dtMISS:          0
cpu0_L2C WRITE        ACCESS:     280643  HIT:     139875  MISS:     140768  iACCESS:          0  iHIT:          0  iMISS:          0  dACCESS:     280643  dHIT:     139875  dMISS:     140768  itACCESS:          0  itHIT:          0  itMISS:          0  dtACCESS:          0  dtHIT:          0  dtMISS:          0
cpu0_L2C TRANSLATION  ACCESS:     190842  HIT:     100925  MISS:      89917  iACCESS:          0  iHIT:          0  iMISS:          0  dACCESS:          0  dHIT:          0  dMISS:          0  itACCESS:       8772  itHIT:       4298  itMISS:       4474  dtACCESS:     182070  dtHIT:      96627  dtMISS:      85443
cpu0_L2C PREFETCH  REQUESTED:    1390365  ISSUED:    1390365  CROSSED:          0  USEFUL:     418840  USELESS:     376229
cpu0_L2C AVERAGE iMISS LATENCY: 15.6054 cycles
cpu0_L2C AVERAGE dMISS LATENCY: 25.3128 cycles
cpu0_L2C AVERAGE itMISS LATENCY: 0.119619 cycles
cpu0_L2C AVERAGE dtMISS LATENCY: 1.62965 cycles
cpu0_L2C PAGE CROSSINGS (TLB HIT):         0 
cpu0_L2C PAGE CROSSINGS (TLB MISS):         0 
cpu0_L2C AVERAGE MISS LATENCY: 42.6674 cycles
LLC TOTAL       ACCESS:    5223545  HIT:    4395115  MISS:     828430  iACCESS:    2408022  iHIT:    2158128  iMISS:     249894  dACCESS:    2725606  dHIT:    2190147  dMISS:     535459  itACCESS:       4474  itHIT:       1320  itMISS:       3154  dtACCESS:      85443  dtHIT:      45520  dtMISS:      39923
LLC LOAD         ACCESS:    1413510  HIT:    1233723  MISS:     179787  iACCESS:     635931  iHIT:     584188  iMISS:      51743  dACCESS:     777579  dHIT:     649535  dMISS:     128044  itACCESS:          0  itHIT:          0  itMISS:          0  dtACCESS:          0  dtHIT:          0  dtMISS:          0
LLC RFO          ACCESS:     104417  HIT:      69188  MISS:      35229  iACCESS:          0  iHIT:          0  iMISS:          0  dACCESS:     104417  dHIT:      69188  dMISS:      35229  itACCESS:          0  itHIT:          0  itMISS:          0  dtACCESS:          0  dtHIT:          0  dtMISS:          0
LLC PREFETCH     ACCESS:    3489293  HIT:    2928663  MISS:     560630  iACCESS:    1772091  iHIT:    1573940  iMISS:     198151  dACCESS:    1717202  dHIT:    1354723  dMISS:     362479  itACCESS:          0  itHIT:          0  itMISS:          0  dtACCESS:          0  dtHIT:          0  dtMISS:          0
LLC WRITE        ACCESS:     126408  HIT:     116701  MISS:       9707  iACCESS:          0  iHIT:          0  iMISS:          0  dACCESS:     126408  dHIT:     116701  dMISS:       9707  itACCESS:          0  itHIT:          0  itMISS:          0  dtACCESS:          0  dtHIT:          0  dtMISS:          0
LLC TRANSLATION  ACCESS:      89917  HIT:      46840  MISS:      43077  iACCESS:          0  iHIT:          0  iMISS:          0  dACCESS:          0  dHIT:          0  dMISS:          0  itACCESS:       4474  itHIT:       1320  itMISS:       3154  dtACCESS:      85443  dtHIT:      45520  dtMISS:      39923
LLC PREFETCH  REQUESTED:          0  ISSUED:          0  CROSSED:          0  USEFUL:          0  USELESS:          0
LLC AVERAGE iMISS LATENCY: 44.7182 cycles
LLC AVERAGE dMISS LATENCY: 102.855 cycles
LLC AVERAGE itMISS LATENCY: 0.666512 cycles
LLC AVERAGE dtMISS LATENCY: 8.51907 cycles
LLC PAGE CROSSINGS (TLB HIT):         0 
LLC PAGE CROSSINGS (TLB MISS):         0 
LLC AVERAGE MISS LATENCY: 156.759 cycles

PageTableWalker TOTAL       ACCESS:      72078  
PageTableWalker AVERAGE LATENCY: 5.0647 cycles
PageTableWalker TOTAL LATENCY: 365053 cycles

DRAM Statistics
Channel 0
 RQ ROW_BUFFER_HIT:     221291
  ROW_BUFFER_MISS:     597397
 AVG DBUS CONGESTED CYCLE:    3.62496
 WQ ROW_BUFFER_HIT:      14830
  ROW_BUFFER_MISS:      21083  FULL:          0

