last_page:0x200000000000000
VMEM_RES_CAP:0x100000
PAGE_SIZE:4096
LOG2_PAGE_SIZE:12
LOG2_PAGE_TABLE_SIZE:9
page_table_levels:5
WARNING: physical memory size is smaller than virtual memory size
FDiP enabled with aggresivity 16

*** ChampSim Multicore Out-of-Order Simulator ***

Warmup Instructions: 50000000
Simulation Instructions: 100000000
Number of CPUs: 1
Small page size: 4096
Large page size: 2097152

CPU 0 Bimodal branch predictor
Basic BTB sets: 1024 ways: 8 indirect buffer size: 4096 RAS size: 64
Instruction page size distrubution: 0
Loading instruction page size distribution from /home/bsc/bsc018186/scratch/itp_asplos25_AE/dump/srv483_ap.pdst
Data page size distrubution: 0
Loading data page size distribution from /home/bsc/bsc018186/scratch/itp_asplos25_AE/dump/srv483_ap.pdst
cpu0_L2C IP-based stride prefetcher
cpu0_L2C is using PTP replacement policy:
	TLB_STRESS_THRESHOLD:0
	PTE_EVICTION_RATIO:0
cpu0_L1D next line prefetcher
cpu0_STLB using iTP with max lru@8
cpu0_STLB using iTP with instr@0 and data@2
Init sat counter with 3 bits (max:50).
cpu0_L1I next line prefetcher
Off-chip DRAM Size: 4 GiB Channels: 1 Width: 64-bit Data Rate: 3200 MT/s
Heartbeat CPU 0 instructions: 10000003 cycles: 2500086 heartbeat IPC: 3.99987 cumulative IPC: 3.99987 (Simulation time: 0 hr 0 min 38 sec) 
Heartbeat CPU 0 instructions: 20000002 cycles: 5000100 heartbeat IPC: 3.99998 cumulative IPC: 3.99993 (Simulation time: 0 hr 1 min 18 sec) 
Heartbeat CPU 0 instructions: 30000002 cycles: 7500100 heartbeat IPC: 4 cumulative IPC: 3.99995 (Simulation time: 0 hr 1 min 58 sec) 
Heartbeat CPU 0 instructions: 40000001 cycles: 10000124 heartbeat IPC: 3.99997 cumulative IPC: 3.99996 (Simulation time: 0 hr 2 min 37 sec) 
Heartbeat CPU 0 instructions: 50000003 cycles: 12500159 heartbeat IPC: 3.99995 cumulative IPC: 3.99995 (Simulation time: 0 hr 3 min 19 sec) 
Warmup finished CPU 0 instructions: 50000003 cycles: 12500160 cumulative IPC: 3.99995 (Simulation time: 0 hr 3 min 19 sec) 

Warmup complete CPU 0 instructions: 50000003 cycles: 12500160 (Simulation time: 0 hr 3 min 19 sec) 

Heartbeat CPU 0 instructions: 60000003 cycles: 27251934 heartbeat IPC: 0.677885 cumulative IPC: 0.677885 (Simulation time: 0 hr 4 min 24 sec) 
Heartbeat CPU 0 instructions: 70000002 cycles: 41182110 heartbeat IPC: 0.717866 cumulative IPC: 0.697303 (Simulation time: 0 hr 5 min 27 sec) 
Heartbeat CPU 0 instructions: 80000000 cycles: 56557208 heartbeat IPC: 0.650403 cumulative IPC: 0.680936 (Simulation time: 0 hr 6 min 31 sec) 
Heartbeat CPU 0 instructions: 90000000 cycles: 72089300 heartbeat IPC: 0.643829 cumulative IPC: 0.671264 (Simulation time: 0 hr 7 min 37 sec) 
Heartbeat CPU 0 instructions: 100000004 cycles: 87332802 heartbeat IPC: 0.656018 cumulative IPC: 0.668158 (Simulation time: 0 hr 8 min 43 sec) 
*** Reached end of trace: /gpfs/projects/bsc18/MN4/bsc18/romol/ChampSim/traces/qualcomm_srv/srv483_ap.champsimtrace.xz
Heartbeat CPU 0 instructions: 110000000 cycles: 101292207 heartbeat IPC: 0.716363 cumulative IPC: 0.675737 (Simulation time: 0 hr 9 min 47 sec) 
Heartbeat CPU 0 instructions: 120000003 cycles: 115702154 heartbeat IPC: 0.693966 cumulative IPC: 0.678282 (Simulation time: 0 hr 10 min 55 sec) 
Heartbeat CPU 0 instructions: 130000000 cycles: 130321355 heartbeat IPC: 0.684032 cumulative IPC: 0.678995 (Simulation time: 0 hr 12 min 4 sec) 
Heartbeat CPU 0 instructions: 140000001 cycles: 144185817 heartbeat IPC: 0.721269 cumulative IPC: 0.683446 (Simulation time: 0 hr 13 min 13 sec) 
Heartbeat CPU 0 instructions: 150000002 cycles: 157969661 heartbeat IPC: 0.725488 cumulative IPC: 0.68743 (Simulation time: 0 hr 14 min 18 sec) 
Simulation finished CPU 0 instructions: 100000000 cycles: 145469516 cumulative IPC: 0.68743 (Simulation time: 0 hr 14 min 18 sec) 

Simulation complete CPU 0 instructions: 100000000 cycles: 145469516 (Simulation time: 0 hr 14 min 18 sec) 


ChampSim completed all CPUs

Saving instructions large page distribution to /home/bsc/bsc018186/scratch/itp_asplos25_AE/dump/srv483_ap.pdst...
Saving data large page distribution to /home/bsc/bsc018186/scratch/itp_asplos25_AE/dump/srv483_ap.pdst...
=== Simulation ===
CPU 0 runs /gpfs/projects/bsc18/MN4/bsc18/romol/ChampSim/traces/qualcomm_srv/srv483_ap.champsimtrace.xz

Region of Interest Statistics

CPU 0 cumulative IPC: 0.68743 instructions: 100000000 cycles: 145469516
CPU 0 Branch Prediction Accuracy: 82.7754% MPKI: 30.8281 Average ROB Occupancy at Mispredict: 12.0751
Branch type MPKI
BRANCH_DIRECT_JUMP: 1.03753
BRANCH_INDIRECT: 15.8271
BRANCH_CONDITIONAL: 10.2134
BRANCH_DIRECT_CALL: 1.87908
BRANCH_INDIRECT_CALL: 0.525871
BRANCH_RETURN: 1.34522

Instructions large pages: 0
Instructions small pages: 967
Large page distribution for instructions: 0%

Data large pages: 0
Data small pages: 9709
Large page distribution for data: 0%

cpu0_L1I TOTAL       ACCESS:   35811386  HIT:   27170661  MISS:    8640725  iACCESS:   35811386  iHIT:   27170661  iMISS:    8640725  dACCESS:          0  dHIT:          0  dMISS:          0  itACCESS:          0  itHIT:          0  itMISS:          0  dtACCESS:          0  dtHIT:          0  dtMISS:          0
cpu0_L1I LOAD         ACCESS:   10511014  HIT:    8089210  MISS:    2421804  iACCESS:   10511014  iHIT:    8089210  iMISS:    2421804  dACCESS:          0  dHIT:          0  dMISS:          0  itACCESS:          0  itHIT:          0  itMISS:          0  dtACCESS:          0  dtHIT:          0  dtMISS:          0
cpu0_L1I RFO          ACCESS:          0  HIT:          0  MISS:          0  iACCESS:          0  iHIT:          0  iMISS:          0  dACCESS:          0  dHIT:          0  dMISS:          0  itACCESS:          0  itHIT:          0  itMISS:          0  dtACCESS:          0  dtHIT:          0  dtMISS:          0
cpu0_L1I PREFETCH     ACCESS:   25300372  HIT:   19081451  MISS:    6218921  iACCESS:   25300372  iHIT:   19081451  iMISS:    6218921  dACCESS:          0  dHIT:          0  dMISS:          0  itACCESS:          0  itHIT:          0  itMISS:          0  dtACCESS:          0  dtHIT:          0  dtMISS:          0
cpu0_L1I WRITE        ACCESS:          0  HIT:          0  MISS:          0  iACCESS:          0  iHIT:          0  iMISS:          0  dACCESS:          0  dHIT:          0  dMISS:          0  itACCESS:          0  itHIT:          0  itMISS:          0  dtACCESS:          0  dtHIT:          0  dtMISS:          0
cpu0_L1I TRANSLATION  ACCESS:          0  HIT:          0  MISS:          0  iACCESS:          0  iHIT:          0  iMISS:          0  dACCESS:          0  dHIT:          0  dMISS:          0  itACCESS:          0  itHIT:          0  itMISS:          0  dtACCESS:          0  dtHIT:          0  dtMISS:          0
cpu0_L1I PREFETCH  REQUESTED:   27576990  ISSUED:   27572254  CROSSED:          0  USEFUL:    1964335  USELESS:     639382
cpu0_L1I AVERAGE iMISS LATENCY: 14.2317 cycles
cpu0_L1I AVERAGE dMISS LATENCY: 0 cycles
cpu0_L1I AVERAGE itMISS LATENCY: 0 cycles
cpu0_L1I AVERAGE dtMISS LATENCY: 0 cycles
cpu0_L1I PAGE CROSSINGS (TLB HIT):         0 
cpu0_L1I PAGE CROSSINGS (TLB MISS):         0 
cpu0_L1I AVERAGE MISS LATENCY: 14.2317 cycles
cpu0_ITLB TOTAL       ACCESS:   29579186  HIT:   27619302  MISS:    1959884  iACCESS:   29579186  iHIT:   27619302  iMISS:    1959884  dACCESS:          0  dHIT:          0  dMISS:          0  itACCESS:          0  itHIT:          0  itMISS:          0  dtACCESS:          0  dtHIT:          0  dtMISS:          0
cpu0_ITLB LOAD         ACCESS:   29579186  HIT:   27619302  MISS:    1959884  iACCESS:   29579186  iHIT:   27619302  iMISS:    1959884  dACCESS:          0  dHIT:          0  dMISS:          0  itACCESS:          0  itHIT:          0  itMISS:          0  dtACCESS:          0  dtHIT:          0  dtMISS:          0
cpu0_ITLB RFO          ACCESS:          0  HIT:          0  MISS:          0  iACCESS:          0  iHIT:          0  iMISS:          0  dACCESS:          0  dHIT:          0  dMISS:          0  itACCESS:          0  itHIT:          0  itMISS:          0  dtACCESS:          0  dtHIT:          0  dtMISS:          0
cpu0_ITLB PREFETCH     ACCESS:          0  HIT:          0  MISS:          0  iACCESS:          0  iHIT:          0  iMISS:          0  dACCESS:          0  dHIT:          0  dMISS:          0  itACCESS:          0  itHIT:          0  itMISS:          0  dtACCESS:          0  dtHIT:          0  dtMISS:          0
cpu0_ITLB WRITE        ACCESS:          0  HIT:          0  MISS:          0  iACCESS:          0  iHIT:          0  iMISS:          0  dACCESS:          0  dHIT:          0  dMISS:          0  itACCESS:          0  itHIT:          0  itMISS:          0  dtACCESS:          0  dtHIT:          0  dtMISS:          0
cpu0_ITLB TRANSLATION  ACCESS:          0  HIT:          0  MISS:          0  iACCESS:          0  iHIT:          0  iMISS:          0  dACCESS:          0  dHIT:          0  dMISS:          0  itACCESS:          0  itHIT:          0  itMISS:          0  dtACCESS:          0  dtHIT:          0  dtMISS:          0
cpu0_ITLB PREFETCH  REQUESTED:          0  ISSUED:          0  CROSSED:          0  USEFUL:     320566  USELESS:      64652
cpu0_ITLB AVERAGE iMISS LATENCY: 2.0319 cycles
cpu0_ITLB AVERAGE dMISS LATENCY: 0 cycles
cpu0_ITLB AVERAGE itMISS LATENCY: 0 cycles
cpu0_ITLB AVERAGE dtMISS LATENCY: 0 cycles
cpu0_ITLB PAGE CROSSINGS (TLB HIT):         0 
cpu0_ITLB PAGE CROSSINGS (TLB MISS):         0 
cpu0_ITLB AVERAGE MISS LATENCY: 2.0319 cycles
cpu0_DTLB TOTAL       ACCESS:   27756726  HIT:   25912166  MISS:    1844560  iACCESS:          0  iHIT:          0  iMISS:          0  dACCESS:   27756726  dHIT:   25912166  dMISS:    1844560  itACCESS:          0  itHIT:          0  itMISS:          0  dtACCESS:          0  dtHIT:          0  dtMISS:          0
cpu0_DTLB LOAD         ACCESS:   27756726  HIT:   25912166  MISS:    1844560  iACCESS:          0  iHIT:          0  iMISS:          0  dACCESS:   27756726  dHIT:   25912166  dMISS:    1844560  itACCESS:          0  itHIT:          0  itMISS:          0  dtACCESS:          0  dtHIT:          0  dtMISS:          0
cpu0_DTLB RFO          ACCESS:          0  HIT:          0  MISS:          0  iACCESS:          0  iHIT:          0  iMISS:          0  dACCESS:          0  dHIT:          0  dMISS:          0  itACCESS:          0  itHIT:          0  itMISS:          0  dtACCESS:          0  dtHIT:          0  dtMISS:          0
cpu0_DTLB PREFETCH     ACCESS:          0  HIT:          0  MISS:          0  iACCESS:          0  iHIT:          0  iMISS:          0  dACCESS:          0  dHIT:          0  dMISS:          0  itACCESS:          0  itHIT:          0  itMISS:          0  dtACCESS:          0  dtHIT:          0  dtMISS:          0
cpu0_DTLB WRITE        ACCESS:          0  HIT:          0  MISS:          0  iACCESS:          0  iHIT:          0  iMISS:          0  dACCESS:          0  dHIT:          0  dMISS:          0  itACCESS:          0  itHIT:          0  itMISS:          0  dtACCESS:          0  dtHIT:          0  dtMISS:          0
cpu0_DTLB TRANSLATION  ACCESS:          0  HIT:          0  MISS:          0  iACCESS:          0  iHIT:          0  iMISS:          0  dACCESS:          0  dHIT:          0  dMISS:          0  itACCESS:          0  itHIT:          0  itMISS:          0  dtACCESS:          0  dtHIT:          0  dtMISS:          0
cpu0_DTLB PREFETCH  REQUESTED:          0  ISSUED:          0  CROSSED:          0  USEFUL:          0  USELESS:          0
cpu0_DTLB AVERAGE iMISS LATENCY: 0 cycles
cpu0_DTLB AVERAGE dMISS LATENCY: 10.8077 cycles
cpu0_DTLB AVERAGE itMISS LATENCY: 0 cycles
cpu0_DTLB AVERAGE dtMISS LATENCY: 0 cycles
cpu0_DTLB PAGE CROSSINGS (TLB HIT):         0 
cpu0_DTLB PAGE CROSSINGS (TLB MISS):         0 
cpu0_DTLB AVERAGE MISS LATENCY: 10.8077 cycles
cpu0_STLB TOTAL       ACCESS:    1525901  HIT:    1381930  MISS:     143971  iACCESS:     385252  iHIT:     375119  iMISS:      10133  dACCESS:    1140649  dHIT:    1006811  dMISS:     133838  itACCESS:          0  itHIT:          0  itMISS:          0  dtACCESS:          0  dtHIT:          0  dtMISS:          0
cpu0_STLB LOAD         ACCESS:    1525901  HIT:    1381930  MISS:     143971  iACCESS:     385252  iHIT:     375119  iMISS:      10133  dACCESS:    1140649  dHIT:    1006811  dMISS:     133838  itACCESS:          0  itHIT:          0  itMISS:          0  dtACCESS:          0  dtHIT:          0  dtMISS:          0
cpu0_STLB RFO          ACCESS:          0  HIT:          0  MISS:          0  iACCESS:          0  iHIT:          0  iMISS:          0  dACCESS:          0  dHIT:          0  dMISS:          0  itACCESS:          0  itHIT:          0  itMISS:          0  dtACCESS:          0  dtHIT:          0  dtMISS:          0
cpu0_STLB PREFETCH     ACCESS:          0  HIT:          0  MISS:          0  iACCESS:          0  iHIT:          0  iMISS:          0  dACCESS:          0  dHIT:          0  dMISS:          0  itACCESS:          0  itHIT:          0  itMISS:          0  dtACCESS:          0  dtHIT:          0  dtMISS:          0
cpu0_STLB WRITE        ACCESS:          0  HIT:          0  MISS:          0  iACCESS:          0  iHIT:          0  iMISS:          0  dACCESS:          0  dHIT:          0  dMISS:          0  itACCESS:          0  itHIT:          0  itMISS:          0  dtACCESS:          0  dtHIT:          0  dtMISS:          0
cpu0_STLB TRANSLATION  ACCESS:          0  HIT:          0  MISS:          0  iACCESS:          0  iHIT:          0  iMISS:          0  dACCESS:          0  dHIT:          0  dMISS:          0  itACCESS:          0  itHIT:          0  itMISS:          0  dtACCESS:          0  dtHIT:          0  dtMISS:          0
cpu0_STLB PREFETCH  REQUESTED:          0  ISSUED:          0  CROSSED:          0  USEFUL:          0  USELESS:          0
cpu0_STLB AVERAGE iMISS LATENCY: 6.90066 cycles
cpu0_STLB AVERAGE dMISS LATENCY: 75.1465 cycles
cpu0_STLB AVERAGE itMISS LATENCY: 0 cycles
cpu0_STLB AVERAGE dtMISS LATENCY: 0 cycles
cpu0_STLB PAGE CROSSINGS (TLB HIT):         0 
cpu0_STLB PAGE CROSSINGS (TLB MISS):         0 
cpu0_STLB AVERAGE MISS LATENCY: 82.0471 cycles
cpu0_L1D TOTAL       ACCESS:   41606511  HIT:   38064162  MISS:    3542349  iACCESS:          0  iHIT:          0  iMISS:          0  dACCESS:   41393548  dHIT:   38050685  dMISS:    3342863  itACCESS:      11740  itHIT:       1208  itMISS:      10532  dtACCESS:     201223  dtHIT:      12269  dtMISS:     188954
cpu0_L1D LOAD         ACCESS:   19001064  HIT:   17482338  MISS:    1518726  iACCESS:          0  iHIT:          0  iMISS:          0  dACCESS:   19001064  dHIT:   17482338  dMISS:    1518726  itACCESS:          0  itHIT:          0  itMISS:          0  dtACCESS:          0  dtHIT:          0  dtMISS:          0
cpu0_L1D RFO          ACCESS:          0  HIT:          0  MISS:          0  iACCESS:          0  iHIT:          0  iMISS:          0  dACCESS:          0  dHIT:          0  dMISS:          0  itACCESS:          0  itHIT:          0  itMISS:          0  dtACCESS:          0  dtHIT:          0  dtMISS:          0
cpu0_L1D PREFETCH     ACCESS:   12201293  HIT:   10816662  MISS:    1384631  iACCESS:          0  iHIT:          0  iMISS:          0  dACCESS:   12201293  dHIT:   10816662  dMISS:    1384631  itACCESS:          0  itHIT:          0  itMISS:          0  dtACCESS:          0  dtHIT:          0  dtMISS:          0
cpu0_L1D WRITE        ACCESS:   10191191  HIT:    9751685  MISS:     439506  iACCESS:          0  iHIT:          0  iMISS:          0  dACCESS:   10191191  dHIT:    9751685  dMISS:     439506  itACCESS:          0  itHIT:          0  itMISS:          0  dtACCESS:          0  dtHIT:          0  dtMISS:          0
cpu0_L1D TRANSLATION  ACCESS:     212963  HIT:      13477  MISS:     199486  iACCESS:          0  iHIT:          0  iMISS:          0  dACCESS:          0  dHIT:          0  dMISS:          0  itACCESS:      11740  itHIT:       1208  itMISS:      10532  dtACCESS:     201223  dtHIT:      12269  dtMISS:     188954
cpu0_L1D PREFETCH  REQUESTED:   19001064  ISSUED:   16990046  CROSSED:          0  USEFUL:     306330  USELESS:     706282
cpu0_L1D AVERAGE iMISS LATENCY: 0 cycles
cpu0_L1D AVERAGE dMISS LATENCY: 35.408 cycles
cpu0_L1D AVERAGE itMISS LATENCY: 0.249934 cycles
cpu0_L1D AVERAGE dtMISS LATENCY: 2.27885 cycles
cpu0_L1D PAGE CROSSINGS (TLB HIT):         0 
cpu0_L1D PAGE CROSSINGS (TLB MISS):         0 
cpu0_L1D AVERAGE MISS LATENCY: 37.9367 cycles
cpu0_L2C TOTAL       ACCESS:    7068818  HIT:    1279400  MISS:    5789418  iACCESS:    3361679  iHIT:     754152  iMISS:    2607527  dACCESS:    3518621  dHIT:     384590  dMISS:    3134031  itACCESS:      10506  itHIT:       4380  itMISS:       6126  dtACCESS:     178012  dtHIT:     136278  dtMISS:      41734
cpu0_L2C LOAD         ACCESS:    1732765  HIT:     157186  MISS:    1575579  iACCESS:     796413  iHIT:     118228  iMISS:     678185  dACCESS:     936352  dHIT:      38958  dMISS:     897394  itACCESS:          0  itHIT:          0  itMISS:          0  dtACCESS:          0  dtHIT:          0  dtMISS:          0
cpu0_L2C RFO          ACCESS:     159172  HIT:       9162  MISS:     150010  iACCESS:          0  iHIT:          0  iMISS:          0  dACCESS:     159172  dHIT:       9162  dMISS:     150010  itACCESS:          0  itHIT:          0  itMISS:          0  dtACCESS:          0  dtHIT:          0  dtMISS:          0
cpu0_L2C PREFETCH     ACCESS:    4703715  HIT:     919998  MISS:    3783717  iACCESS:    2565266  iHIT:     635924  iMISS:    1929342  dACCESS:    2138449  dHIT:     284074  dMISS:    1854375  itACCESS:          0  itHIT:          0  itMISS:          0  dtACCESS:          0  dtHIT:          0  dtMISS:          0
cpu0_L2C WRITE        ACCESS:     284648  HIT:      52396  MISS:     232252  iACCESS:          0  iHIT:          0  iMISS:          0  dACCESS:     284648  dHIT:      52396  dMISS:     232252  itACCESS:          0  itHIT:          0  itMISS:          0  dtACCESS:          0  dtHIT:          0  dtMISS:          0
cpu0_L2C TRANSLATION  ACCESS:     188518  HIT:     140658  MISS:      47860  iACCESS:          0  iHIT:          0  iMISS:          0  dACCESS:          0  dHIT:          0  dMISS:          0  itACCESS:      10506  itHIT:       4380  itMISS:       6126  dtACCESS:     178012  dtHIT:     136278  dtMISS:      41734
cpu0_L2C PREFETCH  REQUESTED:    1388394  ISSUED:    1388394  CROSSED:          0  USEFUL:     427288  USELESS:     390683
cpu0_L2C AVERAGE iMISS LATENCY: 15.8008 cycles
cpu0_L2C AVERAGE dMISS LATENCY: 25.5906 cycles
cpu0_L2C AVERAGE itMISS LATENCY: 0.13549 cycles
cpu0_L2C AVERAGE dtMISS LATENCY: 1.10884 cycles
cpu0_L2C PAGE CROSSINGS (TLB HIT):         0 
cpu0_L2C PAGE CROSSINGS (TLB MISS):         0 
cpu0_L2C AVERAGE MISS LATENCY: 42.6357 cycles
LLC TOTAL       ACCESS:    5700342  HIT:    4801611  MISS:     898731  iACCESS:    2550947  iHIT:    2260423  iMISS:     290524  dACCESS:    3101535  dHIT:    2529056  dMISS:     572479  itACCESS:       6126  itHIT:       2270  itMISS:       3856  dtACCESS:      41734  dtHIT:       9862  dtMISS:      31872
LLC LOAD         ACCESS:    1573314  HIT:    1373248  MISS:     200066  iACCESS:     676519  iHIT:     617365  iMISS:      59154  dACCESS:     896795  dHIT:     755883  dMISS:     140912  itACCESS:          0  itHIT:          0  itMISS:          0  dtACCESS:          0  dtHIT:          0  dtMISS:          0
LLC RFO          ACCESS:     150008  HIT:     113254  MISS:      36754  iACCESS:          0  iHIT:          0  iMISS:          0  dACCESS:     150008  dHIT:     113254  dMISS:      36754  itACCESS:          0  itHIT:          0  itMISS:          0  dtACCESS:          0  dtHIT:          0  dtMISS:          0
LLC PREFETCH     ACCESS:    3671245  HIT:    3045069  MISS:     626176  iACCESS:    1874428  iHIT:    1643058  iMISS:     231370  dACCESS:    1796817  dHIT:    1402011  dMISS:     394806  itACCESS:          0  itHIT:          0  itMISS:          0  dtACCESS:          0  dtHIT:          0  dtMISS:          0
LLC WRITE        ACCESS:     257915  HIT:     257908  MISS:          7  iACCESS:          0  iHIT:          0  iMISS:          0  dACCESS:     257915  dHIT:     257908  dMISS:          7  itACCESS:          0  itHIT:          0  itMISS:          0  dtACCESS:          0  dtHIT:          0  dtMISS:          0
LLC TRANSLATION  ACCESS:      47860  HIT:      12132  MISS:      35728  iACCESS:          0  iHIT:          0  iMISS:          0  dACCESS:          0  dHIT:          0  dMISS:          0  itACCESS:       6126  itHIT:       2270  itMISS:       3856  dtACCESS:      41734  dtHIT:       9862  dtMISS:      31872
LLC PREFETCH  REQUESTED:          0  ISSUED:          0  CROSSED:          0  USEFUL:          0  USELESS:          0
LLC AVERAGE iMISS LATENCY: 46.9424 cycles
LLC AVERAGE dMISS LATENCY: 103.801 cycles
LLC AVERAGE itMISS LATENCY: 0.739286 cycles
LLC AVERAGE dtMISS LATENCY: 6.2281 cycles
LLC PAGE CROSSINGS (TLB HIT):         0 
LLC PAGE CROSSINGS (TLB MISS):         0 
LLC AVERAGE MISS LATENCY: 157.711 cycles

PageTableWalker TOTAL       ACCESS:      68082  
PageTableWalker AVERAGE LATENCY: 4.64304 cycles
PageTableWalker TOTAL LATENCY: 316107 cycles

DRAM Statistics
Channel 0
 RQ ROW_BUFFER_HIT:     260838
  ROW_BUFFER_MISS:     637798
 AVG DBUS CONGESTED CYCLE:    3.63453
 WQ ROW_BUFFER_HIT:      21297
  ROW_BUFFER_MISS:      28990  FULL:          0

