last_page:0x200000000000000
VMEM_RES_CAP:0x100000
PAGE_SIZE:4096
LOG2_PAGE_SIZE:12
LOG2_PAGE_TABLE_SIZE:9
page_table_levels:5
WARNING: physical memory size is smaller than virtual memory size
FDiP enabled with aggresivity 16

*** ChampSim Multicore Out-of-Order Simulator ***

Warmup Instructions: 50000000
Simulation Instructions: 100000000
Number of CPUs: 1
Small page size: 4096
Large page size: 2097152

CPU 0 Bimodal branch predictor
Basic BTB sets: 1024 ways: 8 indirect buffer size: 4096 RAS size: 64
Instruction page size distrubution: 0
Loading instruction page size distribution from /home/bsc/bsc018186/scratch/itp_asplos25_AE/dump/srv499_ap.pdst
Data page size distrubution: 0
Loading data page size distribution from /home/bsc/bsc018186/scratch/itp_asplos25_AE/dump/srv499_ap.pdst
cpu0_L2C IP-based stride prefetcher
cpu0_L2C is using PTP replacement policy:
	TLB_STRESS_THRESHOLD:0
	PTE_EVICTION_RATIO:0
cpu0_L1D next line prefetcher
cpu0_STLB using iTP with max lru@8
cpu0_STLB using iTP with instr@0 and data@2
Init sat counter with 3 bits (max:50).
cpu0_L1I next line prefetcher
Off-chip DRAM Size: 4 GiB Channels: 1 Width: 64-bit Data Rate: 3200 MT/s
Heartbeat CPU 0 instructions: 10000001 cycles: 2500140 heartbeat IPC: 3.99978 cumulative IPC: 3.99978 (Simulation time: 0 hr 0 min 41 sec) 
Heartbeat CPU 0 instructions: 20000001 cycles: 5000203 heartbeat IPC: 3.9999 cumulative IPC: 3.99984 (Simulation time: 0 hr 1 min 24 sec) 
Heartbeat CPU 0 instructions: 30000001 cycles: 7500253 heartbeat IPC: 3.99993 cumulative IPC: 3.99987 (Simulation time: 0 hr 2 min 5 sec) 
Heartbeat CPU 0 instructions: 40000001 cycles: 10000253 heartbeat IPC: 4 cumulative IPC: 3.9999 (Simulation time: 0 hr 2 min 46 sec) 
Heartbeat CPU 0 instructions: 50000000 cycles: 12500293 heartbeat IPC: 3.99994 cumulative IPC: 3.99991 (Simulation time: 0 hr 3 min 28 sec) 
Warmup finished CPU 0 instructions: 50000000 cycles: 12500294 cumulative IPC: 3.99991 (Simulation time: 0 hr 3 min 28 sec) 

Warmup complete CPU 0 instructions: 50000000 cycles: 12500294 (Simulation time: 0 hr 3 min 28 sec) 

Heartbeat CPU 0 instructions: 60000000 cycles: 25900200 heartbeat IPC: 0.746274 cumulative IPC: 0.746274 (Simulation time: 0 hr 4 min 33 sec) 
Heartbeat CPU 0 instructions: 70000001 cycles: 39945279 heartbeat IPC: 0.711994 cumulative IPC: 0.728731 (Simulation time: 0 hr 5 min 46 sec) 
Heartbeat CPU 0 instructions: 80000004 cycles: 53415367 heartbeat IPC: 0.742386 cumulative IPC: 0.733227 (Simulation time: 0 hr 6 min 57 sec) 
Heartbeat CPU 0 instructions: 90000000 cycles: 68046764 heartbeat IPC: 0.683462 cumulative IPC: 0.720118 (Simulation time: 0 hr 8 min 10 sec) 
Heartbeat CPU 0 instructions: 100000003 cycles: 82733919 heartbeat IPC: 0.680868 cumulative IPC: 0.71191 (Simulation time: 0 hr 9 min 24 sec) 
*** Reached end of trace: /gpfs/projects/bsc18/MN4/bsc18/romol/ChampSim/traces/qualcomm_srv/srv499_ap.champsimtrace.xz
Heartbeat CPU 0 instructions: 110000003 cycles: 96076338 heartbeat IPC: 0.74949 cumulative IPC: 0.71791 (Simulation time: 0 hr 10 min 35 sec) 
Heartbeat CPU 0 instructions: 120000003 cycles: 109834940 heartbeat IPC: 0.726819 cumulative IPC: 0.719169 (Simulation time: 0 hr 11 min 45 sec) 
Heartbeat CPU 0 instructions: 130000002 cycles: 124066755 heartbeat IPC: 0.702651 cumulative IPC: 0.717062 (Simulation time: 0 hr 12 min 52 sec) 
Heartbeat CPU 0 instructions: 140000001 cycles: 137810213 heartbeat IPC: 0.727619 cumulative IPC: 0.71822 (Simulation time: 0 hr 14 min 2 sec) 
Heartbeat CPU 0 instructions: 150000001 cycles: 151299974 heartbeat IPC: 0.741303 cumulative IPC: 0.720463 (Simulation time: 0 hr 15 min 12 sec) 
Simulation finished CPU 0 instructions: 100000001 cycles: 138799681 cumulative IPC: 0.720463 (Simulation time: 0 hr 15 min 12 sec) 

Simulation complete CPU 0 instructions: 100000001 cycles: 138799681 (Simulation time: 0 hr 15 min 12 sec) 


ChampSim completed all CPUs

Saving instructions large page distribution to /home/bsc/bsc018186/scratch/itp_asplos25_AE/dump/srv499_ap.pdst...
Saving data large page distribution to /home/bsc/bsc018186/scratch/itp_asplos25_AE/dump/srv499_ap.pdst...
=== Simulation ===
CPU 0 runs /gpfs/projects/bsc18/MN4/bsc18/romol/ChampSim/traces/qualcomm_srv/srv499_ap.champsimtrace.xz

Region of Interest Statistics

CPU 0 cumulative IPC: 0.720463 instructions: 100000001 cycles: 138799681
CPU 0 Branch Prediction Accuracy: 83.5909% MPKI: 29.3426 Average ROB Occupancy at Mispredict: 12.6254
Branch type MPKI
BRANCH_DIRECT_JUMP: 0.99599
BRANCH_INDIRECT: 15.184
BRANCH_CONDITIONAL: 9.55715
BRANCH_DIRECT_CALL: 1.80037
BRANCH_INDIRECT_CALL: 0.50025
BRANCH_RETURN: 1.30486

Instructions large pages: 0
Instructions small pages: 1039
Large page distribution for instructions: 0%

Data large pages: 0
Data small pages: 10233
Large page distribution for data: 0%

cpu0_L1I TOTAL       ACCESS:   35292857  HIT:   26822521  MISS:    8470336  iACCESS:   35292857  iHIT:   26822521  iMISS:    8470336  dACCESS:          0  dHIT:          0  dMISS:          0  itACCESS:          0  itHIT:          0  itMISS:          0  dtACCESS:          0  dtHIT:          0  dtMISS:          0
cpu0_L1I LOAD         ACCESS:   10366839  HIT:    7985217  MISS:    2381622  iACCESS:   10366839  iHIT:    7985217  iMISS:    2381622  dACCESS:          0  dHIT:          0  dMISS:          0  itACCESS:          0  itHIT:          0  itMISS:          0  dtACCESS:          0  dtHIT:          0  dtMISS:          0
cpu0_L1I RFO          ACCESS:          0  HIT:          0  MISS:          0  iACCESS:          0  iHIT:          0  iMISS:          0  dACCESS:          0  dHIT:          0  dMISS:          0  itACCESS:          0  itHIT:          0  itMISS:          0  dtACCESS:          0  dtHIT:          0  dtMISS:          0
cpu0_L1I PREFETCH     ACCESS:   24926018  HIT:   18837304  MISS:    6088714  iACCESS:   24926018  iHIT:   18837304  iMISS:    6088714  dACCESS:          0  dHIT:          0  dMISS:          0  itACCESS:          0  itHIT:          0  itMISS:          0  dtACCESS:          0  dtHIT:          0  dtMISS:          0
cpu0_L1I WRITE        ACCESS:          0  HIT:          0  MISS:          0  iACCESS:          0  iHIT:          0  iMISS:          0  dACCESS:          0  dHIT:          0  dMISS:          0  itACCESS:          0  itHIT:          0  itMISS:          0  dtACCESS:          0  dtHIT:          0  dtMISS:          0
cpu0_L1I TRANSLATION  ACCESS:          0  HIT:          0  MISS:          0  iACCESS:          0  iHIT:          0  iMISS:          0  dACCESS:          0  dHIT:          0  dMISS:          0  itACCESS:          0  itHIT:          0  itMISS:          0  dtACCESS:          0  dtHIT:          0  dtMISS:          0
cpu0_L1I PREFETCH  REQUESTED:   27248034  ISSUED:   27246850  CROSSED:          0  USEFUL:    1899328  USELESS:     625936
cpu0_L1I AVERAGE iMISS LATENCY: 13.5495 cycles
cpu0_L1I AVERAGE dMISS LATENCY: 0 cycles
cpu0_L1I AVERAGE itMISS LATENCY: 0 cycles
cpu0_L1I AVERAGE dtMISS LATENCY: 0 cycles
cpu0_L1I PAGE CROSSINGS (TLB HIT):         0 
cpu0_L1I PAGE CROSSINGS (TLB MISS):         0 
cpu0_L1I AVERAGE MISS LATENCY: 13.5495 cycles
cpu0_ITLB TOTAL       ACCESS:   29120920  HIT:   27151226  MISS:    1969694  iACCESS:   29120920  iHIT:   27151226  iMISS:    1969694  dACCESS:          0  dHIT:          0  dMISS:          0  itACCESS:          0  itHIT:          0  itMISS:          0  dtACCESS:          0  dtHIT:          0  dtMISS:          0
cpu0_ITLB LOAD         ACCESS:   29120920  HIT:   27151226  MISS:    1969694  iACCESS:   29120920  iHIT:   27151226  iMISS:    1969694  dACCESS:          0  dHIT:          0  dMISS:          0  itACCESS:          0  itHIT:          0  itMISS:          0  dtACCESS:          0  dtHIT:          0  dtMISS:          0
cpu0_ITLB RFO          ACCESS:          0  HIT:          0  MISS:          0  iACCESS:          0  iHIT:          0  iMISS:          0  dACCESS:          0  dHIT:          0  dMISS:          0  itACCESS:          0  itHIT:          0  itMISS:          0  dtACCESS:          0  dtHIT:          0  dtMISS:          0
cpu0_ITLB PREFETCH     ACCESS:          0  HIT:          0  MISS:          0  iACCESS:          0  iHIT:          0  iMISS:          0  dACCESS:          0  dHIT:          0  dMISS:          0  itACCESS:          0  itHIT:          0  itMISS:          0  dtACCESS:          0  dtHIT:          0  dtMISS:          0
cpu0_ITLB WRITE        ACCESS:          0  HIT:          0  MISS:          0  iACCESS:          0  iHIT:          0  iMISS:          0  dACCESS:          0  dHIT:          0  dMISS:          0  itACCESS:          0  itHIT:          0  itMISS:          0  dtACCESS:          0  dtHIT:          0  dtMISS:          0
cpu0_ITLB TRANSLATION  ACCESS:          0  HIT:          0  MISS:          0  iACCESS:          0  iHIT:          0  iMISS:          0  dACCESS:          0  dHIT:          0  dMISS:          0  itACCESS:          0  itHIT:          0  itMISS:          0  dtACCESS:          0  dtHIT:          0  dtMISS:          0
cpu0_ITLB PREFETCH  REQUESTED:          0  ISSUED:          0  CROSSED:          0  USEFUL:     321163  USELESS:      66711
cpu0_ITLB AVERAGE iMISS LATENCY: 1.89104 cycles
cpu0_ITLB AVERAGE dMISS LATENCY: 0 cycles
cpu0_ITLB AVERAGE itMISS LATENCY: 0 cycles
cpu0_ITLB AVERAGE dtMISS LATENCY: 0 cycles
cpu0_ITLB PAGE CROSSINGS (TLB HIT):         0 
cpu0_ITLB PAGE CROSSINGS (TLB MISS):         0 
cpu0_ITLB AVERAGE MISS LATENCY: 1.89104 cycles
cpu0_DTLB TOTAL       ACCESS:   27675128  HIT:   25652284  MISS:    2022844  iACCESS:          0  iHIT:          0  iMISS:          0  dACCESS:   27675128  dHIT:   25652284  dMISS:    2022844  itACCESS:          0  itHIT:          0  itMISS:          0  dtACCESS:          0  dtHIT:          0  dtMISS:          0
cpu0_DTLB LOAD         ACCESS:   27675128  HIT:   25652284  MISS:    2022844  iACCESS:          0  iHIT:          0  iMISS:          0  dACCESS:   27675128  dHIT:   25652284  dMISS:    2022844  itACCESS:          0  itHIT:          0  itMISS:          0  dtACCESS:          0  dtHIT:          0  dtMISS:          0
cpu0_DTLB RFO          ACCESS:          0  HIT:          0  MISS:          0  iACCESS:          0  iHIT:          0  iMISS:          0  dACCESS:          0  dHIT:          0  dMISS:          0  itACCESS:          0  itHIT:          0  itMISS:          0  dtACCESS:          0  dtHIT:          0  dtMISS:          0
cpu0_DTLB PREFETCH     ACCESS:          0  HIT:          0  MISS:          0  iACCESS:          0  iHIT:          0  iMISS:          0  dACCESS:          0  dHIT:          0  dMISS:          0  itACCESS:          0  itHIT:          0  itMISS:          0  dtACCESS:          0  dtHIT:          0  dtMISS:          0
cpu0_DTLB WRITE        ACCESS:          0  HIT:          0  MISS:          0  iACCESS:          0  iHIT:          0  iMISS:          0  dACCESS:          0  dHIT:          0  dMISS:          0  itACCESS:          0  itHIT:          0  itMISS:          0  dtACCESS:          0  dtHIT:          0  dtMISS:          0
cpu0_DTLB TRANSLATION  ACCESS:          0  HIT:          0  MISS:          0  iACCESS:          0  iHIT:          0  iMISS:          0  dACCESS:          0  dHIT:          0  dMISS:          0  itACCESS:          0  itHIT:          0  itMISS:          0  dtACCESS:          0  dtHIT:          0  dtMISS:          0
cpu0_DTLB PREFETCH  REQUESTED:          0  ISSUED:          0  CROSSED:          0  USEFUL:          0  USELESS:          0
cpu0_DTLB AVERAGE iMISS LATENCY: 0 cycles
cpu0_DTLB AVERAGE dMISS LATENCY: 10.0038 cycles
cpu0_DTLB AVERAGE itMISS LATENCY: 0 cycles
cpu0_DTLB AVERAGE dtMISS LATENCY: 0 cycles
cpu0_DTLB PAGE CROSSINGS (TLB HIT):         0 
cpu0_DTLB PAGE CROSSINGS (TLB MISS):         0 
cpu0_DTLB AVERAGE MISS LATENCY: 10.0038 cycles
cpu0_STLB TOTAL       ACCESS:    1628033  HIT:    1485806  MISS:     142227  iACCESS:     387921  iHIT:     381109  iMISS:       6812  dACCESS:    1240112  dHIT:    1104697  dMISS:     135415  itACCESS:          0  itHIT:          0  itMISS:          0  dtACCESS:          0  dtHIT:          0  dtMISS:          0
cpu0_STLB LOAD         ACCESS:    1628033  HIT:    1485806  MISS:     142227  iACCESS:     387921  iHIT:     381109  iMISS:       6812  dACCESS:    1240112  dHIT:    1104697  dMISS:     135415  itACCESS:          0  itHIT:          0  itMISS:          0  dtACCESS:          0  dtHIT:          0  dtMISS:          0
cpu0_STLB RFO          ACCESS:          0  HIT:          0  MISS:          0  iACCESS:          0  iHIT:          0  iMISS:          0  dACCESS:          0  dHIT:          0  dMISS:          0  itACCESS:          0  itHIT:          0  itMISS:          0  dtACCESS:          0  dtHIT:          0  dtMISS:          0
cpu0_STLB PREFETCH     ACCESS:          0  HIT:          0  MISS:          0  iACCESS:          0  iHIT:          0  iMISS:          0  dACCESS:          0  dHIT:          0  dMISS:          0  itACCESS:          0  itHIT:          0  itMISS:          0  dtACCESS:          0  dtHIT:          0  dtMISS:          0
cpu0_STLB WRITE        ACCESS:          0  HIT:          0  MISS:          0  iACCESS:          0  iHIT:          0  iMISS:          0  dACCESS:          0  dHIT:          0  dMISS:          0  itACCESS:          0  itHIT:          0  itMISS:          0  dtACCESS:          0  dtHIT:          0  dtMISS:          0
cpu0_STLB TRANSLATION  ACCESS:          0  HIT:          0  MISS:          0  iACCESS:          0  iHIT:          0  iMISS:          0  dACCESS:          0  dHIT:          0  dMISS:          0  itACCESS:          0  itHIT:          0  itMISS:          0  dtACCESS:          0  dtHIT:          0  dtMISS:          0
cpu0_STLB PREFETCH  REQUESTED:          0  ISSUED:          0  CROSSED:          0  USEFUL:          0  USELESS:          0
cpu0_STLB AVERAGE iMISS LATENCY: 5.0355 cycles
cpu0_STLB AVERAGE dMISS LATENCY: 72.6584 cycles
cpu0_STLB AVERAGE itMISS LATENCY: 0 cycles
cpu0_STLB AVERAGE dtMISS LATENCY: 0 cycles
cpu0_STLB PAGE CROSSINGS (TLB HIT):         0 
cpu0_STLB PAGE CROSSINGS (TLB MISS):         0 
cpu0_STLB AVERAGE MISS LATENCY: 77.6939 cycles
cpu0_L1D TOTAL       ACCESS:   41394395  HIT:   37875693  MISS:    3518702  iACCESS:          0  iHIT:          0  iMISS:          0  dACCESS:   41181760  dHIT:   37861612  dMISS:    3320148  itACCESS:       8587  itHIT:        766  itMISS:       7821  dtACCESS:     204048  dtHIT:      13315  dtMISS:     190733
cpu0_L1D LOAD         ACCESS:   18873249  HIT:   17365517  MISS:    1507732  iACCESS:          0  iHIT:          0  iMISS:          0  dACCESS:   18873249  dHIT:   17365517  dMISS:    1507732  itACCESS:          0  itHIT:          0  itMISS:          0  dtACCESS:          0  dtHIT:          0  dtMISS:          0
cpu0_L1D RFO          ACCESS:          0  HIT:          0  MISS:          0  iACCESS:          0  iHIT:          0  iMISS:          0  dACCESS:          0  dHIT:          0  dMISS:          0  itACCESS:          0  itHIT:          0  itMISS:          0  dtACCESS:          0  dtHIT:          0  dtMISS:          0
cpu0_L1D PREFETCH     ACCESS:   12114157  HIT:   10747809  MISS:    1366348  iACCESS:          0  iHIT:          0  iMISS:          0  dACCESS:   12114157  dHIT:   10747809  dMISS:    1366348  itACCESS:          0  itHIT:          0  itMISS:          0  dtACCESS:          0  dtHIT:          0  dtMISS:          0
cpu0_L1D WRITE        ACCESS:   10194354  HIT:    9748286  MISS:     446068  iACCESS:          0  iHIT:          0  iMISS:          0  dACCESS:   10194354  dHIT:    9748286  dMISS:     446068  itACCESS:          0  itHIT:          0  itMISS:          0  dtACCESS:          0  dtHIT:          0  dtMISS:          0
cpu0_L1D TRANSLATION  ACCESS:     212635  HIT:      14081  MISS:     198554  iACCESS:          0  iHIT:          0  iMISS:          0  dACCESS:          0  dHIT:          0  dMISS:          0  itACCESS:       8587  itHIT:        766  itMISS:       7821  dtACCESS:     204048  dtHIT:      13315  dtMISS:     190733
cpu0_L1D PREFETCH  REQUESTED:   18873249  ISSUED:   16908499  CROSSED:          0  USEFUL:     304811  USELESS:     700697
cpu0_L1D AVERAGE iMISS LATENCY: 0 cycles
cpu0_L1D AVERAGE dMISS LATENCY: 35.159 cycles
cpu0_L1D AVERAGE itMISS LATENCY: 0.18206 cycles
cpu0_L1D AVERAGE dtMISS LATENCY: 2.14547 cycles
cpu0_L1D PAGE CROSSINGS (TLB HIT):         0 
cpu0_L1D PAGE CROSSINGS (TLB MISS):         0 
cpu0_L1D AVERAGE MISS LATENCY: 37.4865 cycles
cpu0_L2C TOTAL       ACCESS:    6926495  HIT:    1193817  MISS:    5732678  iACCESS:    3279370  iHIT:     674615  iMISS:    2604755  dACCESS:    3457941  dHIT:     374809  dMISS:    3083132  itACCESS:       7777  itHIT:       3202  itMISS:       4575  dtACCESS:     181407  dtHIT:     141191  dtMISS:      40216
cpu0_L2C LOAD         ACCESS:    1719772  HIT:     135788  MISS:    1583984  iACCESS:     787444  iHIT:      95129  iMISS:     692315  dACCESS:     932328  dHIT:      40659  dMISS:     891669  itACCESS:          0  itHIT:          0  itMISS:          0  dtACCESS:          0  dtHIT:          0  dtMISS:          0
cpu0_L2C RFO          ACCESS:     157789  HIT:       9141  MISS:     148648  iACCESS:          0  iHIT:          0  iMISS:          0  dACCESS:     157789  dHIT:       9141  dMISS:     148648  itACCESS:          0  itHIT:          0  itMISS:          0  dtACCESS:          0  dtHIT:          0  dtMISS:          0
cpu0_L2C PREFETCH     ACCESS:    4574387  HIT:     846587  MISS:    3727800  iACCESS:    2491926  iHIT:     579486  iMISS:    1912440  dACCESS:    2082461  dHIT:     267101  dMISS:    1815360  itACCESS:          0  itHIT:          0  itMISS:          0  dtACCESS:          0  dtHIT:          0  dtMISS:          0
cpu0_L2C WRITE        ACCESS:     285363  HIT:      57908  MISS:     227455  iACCESS:          0  iHIT:          0  iMISS:          0  dACCESS:     285363  dHIT:      57908  dMISS:     227455  itACCESS:          0  itHIT:          0  itMISS:          0  dtACCESS:          0  dtHIT:          0  dtMISS:          0
cpu0_L2C TRANSLATION  ACCESS:     189184  HIT:     144393  MISS:      44791  iACCESS:          0  iHIT:          0  iMISS:          0  dACCESS:          0  dHIT:          0  dMISS:          0  itACCESS:       7777  itHIT:       3202  itMISS:       4575  dtACCESS:     181407  dtHIT:     141191  dtMISS:      40216
cpu0_L2C PREFETCH  REQUESTED:    1328172  ISSUED:    1328172  CROSSED:          0  USEFUL:     406367  USELESS:     382737
cpu0_L2C AVERAGE iMISS LATENCY: 14.7048 cycles
cpu0_L2C AVERAGE dMISS LATENCY: 24.6112 cycles
cpu0_L2C AVERAGE itMISS LATENCY: 0.0987213 cycles
cpu0_L2C AVERAGE dtMISS LATENCY: 1.02349 cycles
cpu0_L2C PAGE CROSSINGS (TLB HIT):         0 
cpu0_L2C PAGE CROSSINGS (TLB MISS):         0 
cpu0_L2C AVERAGE MISS LATENCY: 40.4382 cycles
LLC TOTAL       ACCESS:    5656834  HIT:    4853470  MISS:     803364  iACCESS:    2551660  iHIT:    2315016  iMISS:     236644  dACCESS:    3060383  dHIT:    2525293  dMISS:     535090  itACCESS:       4575  itHIT:       1870  itMISS:       2705  dtACCESS:      40216  dtHIT:      11291  dtMISS:      28925
LLC LOAD         ACCESS:    1582232  HIT:    1391756  MISS:     190476  iACCESS:     691068  iHIT:     639543  iMISS:      51525  dACCESS:     891164  dHIT:     752213  dMISS:     138951  itACCESS:          0  itHIT:          0  itMISS:          0  dtACCESS:          0  dtHIT:          0  dtMISS:          0
LLC RFO          ACCESS:     148648  HIT:     107591  MISS:      41057  iACCESS:          0  iHIT:          0  iMISS:          0  dACCESS:     148648  dHIT:     107591  dMISS:      41057  itACCESS:          0  itHIT:          0  itMISS:          0  dtACCESS:          0  dtHIT:          0  dtMISS:          0
LLC PREFETCH     ACCESS:    3621499  HIT:    3081300  MISS:     540199  iACCESS:    1860592  iHIT:    1675473  iMISS:     185119  dACCESS:    1760907  dHIT:    1405827  dMISS:     355080  itACCESS:          0  itHIT:          0  itMISS:          0  dtACCESS:          0  dtHIT:          0  dtMISS:          0
LLC WRITE        ACCESS:     259664  HIT:     259662  MISS:          2  iACCESS:          0  iHIT:          0  iMISS:          0  dACCESS:     259664  dHIT:     259662  dMISS:          2  itACCESS:          0  itHIT:          0  itMISS:          0  dtACCESS:          0  dtHIT:          0  dtMISS:          0
LLC TRANSLATION  ACCESS:      44791  HIT:      13161  MISS:      31630  iACCESS:          0  iHIT:          0  iMISS:          0  dACCESS:          0  dHIT:          0  dMISS:          0  itACCESS:       4575  itHIT:       1870  itMISS:       2705  dtACCESS:      40216  dtHIT:      11291  dtMISS:      28925
LLC PREFETCH  REQUESTED:          0  ISSUED:          0  CROSSED:          0  USEFUL:          0  USELESS:          0
LLC AVERAGE iMISS LATENCY: 43.6469 cycles
LLC AVERAGE dMISS LATENCY: 108.263 cycles
LLC AVERAGE itMISS LATENCY: 0.593102 cycles
LLC AVERAGE dtMISS LATENCY: 6.319 cycles
LLC PAGE CROSSINGS (TLB HIT):         0 
LLC PAGE CROSSINGS (TLB MISS):         0 
LLC AVERAGE MISS LATENCY: 158.822 cycles

PageTableWalker TOTAL       ACCESS:      70959  
PageTableWalker AVERAGE LATENCY: 4.82307 cycles
PageTableWalker TOTAL LATENCY: 342240 cycles

DRAM Statistics
Channel 0
 RQ ROW_BUFFER_HIT:     221933
  ROW_BUFFER_MISS:     581337
 AVG DBUS CONGESTED CYCLE:    3.63184
 WQ ROW_BUFFER_HIT:      22865
  ROW_BUFFER_MISS:      32255  FULL:          0

