last_page:0x200000000000000
VMEM_RES_CAP:0x100000
PAGE_SIZE:4096
LOG2_PAGE_SIZE:12
LOG2_PAGE_TABLE_SIZE:9
page_table_levels:5
WARNING: physical memory size is smaller than virtual memory size
FDiP enabled with aggresivity 16

*** ChampSim Multicore Out-of-Order Simulator ***

Warmup Instructions: 50000000
Simulation Instructions: 100000000
Number of CPUs: 1
Small page size: 4096
Large page size: 2097152

CPU 0 Bimodal branch predictor
Basic BTB sets: 1024 ways: 8 indirect buffer size: 4096 RAS size: 64
Instruction page size distrubution: 0
Loading instruction page size distribution from /home/bsc/bsc018186/scratch/itp_asplos25_AE/dump/srv41_ap.pdst
Data page size distrubution: 0
Loading data page size distribution from /home/bsc/bsc018186/scratch/itp_asplos25_AE/dump/srv41_ap.pdst
cpu0_L2C IP-based stride prefetcher
cpu0_L2C is using PTP replacement policy:
	TLB_STRESS_THRESHOLD:0
	PTE_EVICTION_RATIO:0
cpu0_L1D next line prefetcher
cpu0_L1I next line prefetcher
Off-chip DRAM Size: 4 GiB Channels: 1 Width: 64-bit Data Rate: 3200 MT/s
Heartbeat CPU 0 instructions: 10000003 cycles: 2500170 heartbeat IPC: 3.99973 cumulative IPC: 3.99973 (Simulation time: 0 hr 0 min 38 sec) 
Heartbeat CPU 0 instructions: 20000001 cycles: 5000271 heartbeat IPC: 3.99984 cumulative IPC: 3.99979 (Simulation time: 0 hr 1 min 17 sec) 
Heartbeat CPU 0 instructions: 30000000 cycles: 7500313 heartbeat IPC: 3.99994 cumulative IPC: 3.99984 (Simulation time: 0 hr 1 min 57 sec) 
Heartbeat CPU 0 instructions: 40000002 cycles: 10000372 heartbeat IPC: 3.99991 cumulative IPC: 3.99986 (Simulation time: 0 hr 2 min 38 sec) 
Heartbeat CPU 0 instructions: 50000003 cycles: 12500380 heartbeat IPC: 3.99999 cumulative IPC: 3.99988 (Simulation time: 0 hr 3 min 18 sec) 
Warmup finished CPU 0 instructions: 50000003 cycles: 12500381 cumulative IPC: 3.99988 (Simulation time: 0 hr 3 min 18 sec) 

Warmup complete CPU 0 instructions: 50000003 cycles: 12500381 (Simulation time: 0 hr 3 min 18 sec) 

Heartbeat CPU 0 instructions: 60000004 cycles: 30799490 heartbeat IPC: 0.546475 cumulative IPC: 0.546475 (Simulation time: 0 hr 4 min 28 sec) 
Heartbeat CPU 0 instructions: 70000003 cycles: 48647781 heartbeat IPC: 0.560278 cumulative IPC: 0.553291 (Simulation time: 0 hr 5 min 39 sec) 
Heartbeat CPU 0 instructions: 80000000 cycles: 67631047 heartbeat IPC: 0.52678 cumulative IPC: 0.544162 (Simulation time: 0 hr 6 min 51 sec) 
Heartbeat CPU 0 instructions: 90000003 cycles: 87820186 heartbeat IPC: 0.495316 cumulative IPC: 0.531069 (Simulation time: 0 hr 8 min 6 sec) 
Heartbeat CPU 0 instructions: 100000002 cycles: 106705809 heartbeat IPC: 0.529504 cumulative IPC: 0.530755 (Simulation time: 0 hr 9 min 17 sec) 
*** Reached end of trace: /gpfs/projects/bsc18/MN4/bsc18/romol/ChampSim/traces/qualcomm_srv/srv41_ap.champsimtrace.xz
Heartbeat CPU 0 instructions: 110000003 cycles: 126385455 heartbeat IPC: 0.50814 cumulative IPC: 0.526847 (Simulation time: 0 hr 10 min 30 sec) 
Heartbeat CPU 0 instructions: 120000001 cycles: 146793771 heartbeat IPC: 0.489997 cumulative IPC: 0.521247 (Simulation time: 0 hr 11 min 44 sec) 
Heartbeat CPU 0 instructions: 130000002 cycles: 166762713 heartbeat IPC: 0.500778 cumulative IPC: 0.518598 (Simulation time: 0 hr 12 min 55 sec) 
Heartbeat CPU 0 instructions: 140000001 cycles: 187054317 heartbeat IPC: 0.492815 cumulative IPC: 0.5156 (Simulation time: 0 hr 14 min 7 sec) 
Heartbeat CPU 0 instructions: 150000002 cycles: 207404058 heartbeat IPC: 0.491407 cumulative IPC: 0.513074 (Simulation time: 0 hr 15 min 22 sec) 
Simulation finished CPU 0 instructions: 100000004 cycles: 194903679 cumulative IPC: 0.513074 (Simulation time: 0 hr 15 min 22 sec) 

Simulation complete CPU 0 instructions: 100000004 cycles: 194903679 (Simulation time: 0 hr 15 min 22 sec) 


ChampSim completed all CPUs

Saving instructions large page distribution to /home/bsc/bsc018186/scratch/itp_asplos25_AE/dump/srv41_ap.pdst...
Saving data large page distribution to /home/bsc/bsc018186/scratch/itp_asplos25_AE/dump/srv41_ap.pdst...
=== Simulation ===
CPU 0 runs /gpfs/projects/bsc18/MN4/bsc18/romol/ChampSim/traces/qualcomm_srv/srv41_ap.champsimtrace.xz

Region of Interest Statistics

CPU 0 cumulative IPC: 0.513074 instructions: 100000004 cycles: 194903679
CPU 0 Branch Prediction Accuracy: 80.3925% MPKI: 35.4392 Average ROB Occupancy at Mispredict: 10.5677
Branch type MPKI
BRANCH_DIRECT_JUMP: 1.31902
BRANCH_INDIRECT: 17.7313
BRANCH_CONDITIONAL: 11.5202
BRANCH_DIRECT_CALL: 2.49591
BRANCH_INDIRECT_CALL: 0.6704
BRANCH_RETURN: 1.70236

Instructions large pages: 0
Instructions small pages: 5905
Large page distribution for instructions: 0%

Data large pages: 0
Data small pages: 4859
Large page distribution for data: 0%

cpu0_L1I TOTAL       ACCESS:   36053377  HIT:   27875065  MISS:    8178312  iACCESS:   36053377  iHIT:   27875065  iMISS:    8178312  dACCESS:          0  dHIT:          0  dMISS:          0  itACCESS:          0  itHIT:          0  itMISS:          0  dtACCESS:          0  dtHIT:          0  dtMISS:          0
cpu0_L1I LOAD         ACCESS:   10511546  HIT:    8260789  MISS:    2250757  iACCESS:   10511546  iHIT:    8260789  iMISS:    2250757  dACCESS:          0  dHIT:          0  dMISS:          0  itACCESS:          0  itHIT:          0  itMISS:          0  dtACCESS:          0  dtHIT:          0  dtMISS:          0
cpu0_L1I RFO          ACCESS:          0  HIT:          0  MISS:          0  iACCESS:          0  iHIT:          0  iMISS:          0  dACCESS:          0  dHIT:          0  dMISS:          0  itACCESS:          0  itHIT:          0  itMISS:          0  dtACCESS:          0  dtHIT:          0  dtMISS:          0
cpu0_L1I PREFETCH     ACCESS:   25541831  HIT:   19614276  MISS:    5927555  iACCESS:   25541831  iHIT:   19614276  iMISS:    5927555  dACCESS:          0  dHIT:          0  dMISS:          0  itACCESS:          0  itHIT:          0  itMISS:          0  dtACCESS:          0  dtHIT:          0  dtMISS:          0
cpu0_L1I WRITE        ACCESS:          0  HIT:          0  MISS:          0  iACCESS:          0  iHIT:          0  iMISS:          0  dACCESS:          0  dHIT:          0  dMISS:          0  itACCESS:          0  itHIT:          0  itMISS:          0  dtACCESS:          0  dtHIT:          0  dtMISS:          0
cpu0_L1I TRANSLATION  ACCESS:          0  HIT:          0  MISS:          0  iACCESS:          0  iHIT:          0  iMISS:          0  dACCESS:          0  dHIT:          0  dMISS:          0  itACCESS:          0  itHIT:          0  itMISS:          0  dtACCESS:          0  dtHIT:          0  dtMISS:          0
cpu0_L1I PREFETCH  REQUESTED:   27978577  ISSUED:   27978094  CROSSED:          0  USEFUL:    1990634  USELESS:     652571
cpu0_L1I AVERAGE iMISS LATENCY: 19.5264 cycles
cpu0_L1I AVERAGE dMISS LATENCY: 0 cycles
cpu0_L1I AVERAGE itMISS LATENCY: 0 cycles
cpu0_L1I AVERAGE dtMISS LATENCY: 0 cycles
cpu0_L1I PAGE CROSSINGS (TLB HIT):         0 
cpu0_L1I PAGE CROSSINGS (TLB MISS):         0 
cpu0_L1I AVERAGE MISS LATENCY: 19.5264 cycles
cpu0_ITLB TOTAL       ACCESS:   30173777  HIT:   28233160  MISS:    1940617  iACCESS:   30173777  iHIT:   28233160  iMISS:    1940617  dACCESS:          0  dHIT:          0  dMISS:          0  itACCESS:          0  itHIT:          0  itMISS:          0  dtACCESS:          0  dtHIT:          0  dtMISS:          0
cpu0_ITLB LOAD         ACCESS:   30173777  HIT:   28233160  MISS:    1940617  iACCESS:   30173777  iHIT:   28233160  iMISS:    1940617  dACCESS:          0  dHIT:          0  dMISS:          0  itACCESS:          0  itHIT:          0  itMISS:          0  dtACCESS:          0  dtHIT:          0  dtMISS:          0
cpu0_ITLB RFO          ACCESS:          0  HIT:          0  MISS:          0  iACCESS:          0  iHIT:          0  iMISS:          0  dACCESS:          0  dHIT:          0  dMISS:          0  itACCESS:          0  itHIT:          0  itMISS:          0  dtACCESS:          0  dtHIT:          0  dtMISS:          0
cpu0_ITLB PREFETCH     ACCESS:          0  HIT:          0  MISS:          0  iACCESS:          0  iHIT:          0  iMISS:          0  dACCESS:          0  dHIT:          0  dMISS:          0  itACCESS:          0  itHIT:          0  itMISS:          0  dtACCESS:          0  dtHIT:          0  dtMISS:          0
cpu0_ITLB WRITE        ACCESS:          0  HIT:          0  MISS:          0  iACCESS:          0  iHIT:          0  iMISS:          0  dACCESS:          0  dHIT:          0  dMISS:          0  itACCESS:          0  itHIT:          0  itMISS:          0  dtACCESS:          0  dtHIT:          0  dtMISS:          0
cpu0_ITLB TRANSLATION  ACCESS:          0  HIT:          0  MISS:          0  iACCESS:          0  iHIT:          0  iMISS:          0  dACCESS:          0  dHIT:          0  dMISS:          0  itACCESS:          0  itHIT:          0  itMISS:          0  dtACCESS:          0  dtHIT:          0  dtMISS:          0
cpu0_ITLB PREFETCH  REQUESTED:          0  ISSUED:          0  CROSSED:          0  USEFUL:     327341  USELESS:      65812
cpu0_ITLB AVERAGE iMISS LATENCY: 5.62822 cycles
cpu0_ITLB AVERAGE dMISS LATENCY: 0 cycles
cpu0_ITLB AVERAGE itMISS LATENCY: 0 cycles
cpu0_ITLB AVERAGE dtMISS LATENCY: 0 cycles
cpu0_ITLB PAGE CROSSINGS (TLB HIT):         0 
cpu0_ITLB PAGE CROSSINGS (TLB MISS):         0 
cpu0_ITLB AVERAGE MISS LATENCY: 5.62822 cycles
cpu0_DTLB TOTAL       ACCESS:   27918972  HIT:   25954331  MISS:    1964641  iACCESS:          0  iHIT:          0  iMISS:          0  dACCESS:   27918972  dHIT:   25954331  dMISS:    1964641  itACCESS:          0  itHIT:          0  itMISS:          0  dtACCESS:          0  dtHIT:          0  dtMISS:          0
cpu0_DTLB LOAD         ACCESS:   27918972  HIT:   25954331  MISS:    1964641  iACCESS:          0  iHIT:          0  iMISS:          0  dACCESS:   27918972  dHIT:   25954331  dMISS:    1964641  itACCESS:          0  itHIT:          0  itMISS:          0  dtACCESS:          0  dtHIT:          0  dtMISS:          0
cpu0_DTLB RFO          ACCESS:          0  HIT:          0  MISS:          0  iACCESS:          0  iHIT:          0  iMISS:          0  dACCESS:          0  dHIT:          0  dMISS:          0  itACCESS:          0  itHIT:          0  itMISS:          0  dtACCESS:          0  dtHIT:          0  dtMISS:          0
cpu0_DTLB PREFETCH     ACCESS:          0  HIT:          0  MISS:          0  iACCESS:          0  iHIT:          0  iMISS:          0  dACCESS:          0  dHIT:          0  dMISS:          0  itACCESS:          0  itHIT:          0  itMISS:          0  dtACCESS:          0  dtHIT:          0  dtMISS:          0
cpu0_DTLB WRITE        ACCESS:          0  HIT:          0  MISS:          0  iACCESS:          0  iHIT:          0  iMISS:          0  dACCESS:          0  dHIT:          0  dMISS:          0  itACCESS:          0  itHIT:          0  itMISS:          0  dtACCESS:          0  dtHIT:          0  dtMISS:          0
cpu0_DTLB TRANSLATION  ACCESS:          0  HIT:          0  MISS:          0  iACCESS:          0  iHIT:          0  iMISS:          0  dACCESS:          0  dHIT:          0  dMISS:          0  itACCESS:          0  itHIT:          0  itMISS:          0  dtACCESS:          0  dtHIT:          0  dtMISS:          0
cpu0_DTLB PREFETCH  REQUESTED:          0  ISSUED:          0  CROSSED:          0  USEFUL:          0  USELESS:          0
cpu0_DTLB AVERAGE iMISS LATENCY: 0 cycles
cpu0_DTLB AVERAGE dMISS LATENCY: 14.9764 cycles
cpu0_DTLB AVERAGE itMISS LATENCY: 0 cycles
cpu0_DTLB AVERAGE dtMISS LATENCY: 0 cycles
cpu0_DTLB PAGE CROSSINGS (TLB HIT):         0 
cpu0_DTLB PAGE CROSSINGS (TLB MISS):         0 
cpu0_DTLB AVERAGE MISS LATENCY: 14.9764 cycles
cpu0_STLB TOTAL       ACCESS:    1626896  HIT:    1398672  MISS:     228224  iACCESS:     393160  iHIT:     305942  iMISS:      87218  dACCESS:    1233736  dHIT:    1092730  dMISS:     141006  itACCESS:          0  itHIT:          0  itMISS:          0  dtACCESS:          0  dtHIT:          0  dtMISS:          0
cpu0_STLB LOAD         ACCESS:    1626896  HIT:    1398672  MISS:     228224  iACCESS:     393160  iHIT:     305942  iMISS:      87218  dACCESS:    1233736  dHIT:    1092730  dMISS:     141006  itACCESS:          0  itHIT:          0  itMISS:          0  dtACCESS:          0  dtHIT:          0  dtMISS:          0
cpu0_STLB RFO          ACCESS:          0  HIT:          0  MISS:          0  iACCESS:          0  iHIT:          0  iMISS:          0  dACCESS:          0  dHIT:          0  dMISS:          0  itACCESS:          0  itHIT:          0  itMISS:          0  dtACCESS:          0  dtHIT:          0  dtMISS:          0
cpu0_STLB PREFETCH     ACCESS:          0  HIT:          0  MISS:          0  iACCESS:          0  iHIT:          0  iMISS:          0  dACCESS:          0  dHIT:          0  dMISS:          0  itACCESS:          0  itHIT:          0  itMISS:          0  dtACCESS:          0  dtHIT:          0  dtMISS:          0
cpu0_STLB WRITE        ACCESS:          0  HIT:          0  MISS:          0  iACCESS:          0  iHIT:          0  iMISS:          0  dACCESS:          0  dHIT:          0  dMISS:          0  itACCESS:          0  itHIT:          0  itMISS:          0  dtACCESS:          0  dtHIT:          0  dtMISS:          0
cpu0_STLB TRANSLATION  ACCESS:          0  HIT:          0  MISS:          0  iACCESS:          0  iHIT:          0  iMISS:          0  dACCESS:          0  dHIT:          0  dMISS:          0  itACCESS:          0  itHIT:          0  itMISS:          0  dtACCESS:          0  dtHIT:          0  dtMISS:          0
cpu0_STLB PREFETCH  REQUESTED:          0  ISSUED:          0  CROSSED:          0  USEFUL:          0  USELESS:          0
cpu0_STLB AVERAGE iMISS LATENCY: 34.1262 cycles
cpu0_STLB AVERAGE dMISS LATENCY: 85.7935 cycles
cpu0_STLB AVERAGE itMISS LATENCY: 0 cycles
cpu0_STLB AVERAGE dtMISS LATENCY: 0 cycles
cpu0_STLB PAGE CROSSINGS (TLB HIT):         0 
cpu0_STLB PAGE CROSSINGS (TLB MISS):         0 
cpu0_STLB AVERAGE MISS LATENCY: 119.92 cycles
cpu0_L1D TOTAL       ACCESS:   42635396  HIT:   38427873  MISS:    4207523  iACCESS:          0  iHIT:          0  iMISS:          0  dACCESS:   42348062  dHIT:   38403493  dMISS:    3944569  itACCESS:      93060  itHIT:      13006  itMISS:      80054  dtACCESS:     194274  dtHIT:      11374  dtMISS:     182900
cpu0_L1D LOAD         ACCESS:   19375446  HIT:   17575236  MISS:    1800210  iACCESS:          0  iHIT:          0  iMISS:          0  dACCESS:   19375446  dHIT:   17575236  dMISS:    1800210  itACCESS:          0  itHIT:          0  itMISS:          0  dtACCESS:          0  dtHIT:          0  dtMISS:          0
cpu0_L1D RFO          ACCESS:          0  HIT:          0  MISS:          0  iACCESS:          0  iHIT:          0  iMISS:          0  dACCESS:          0  dHIT:          0  dMISS:          0  itACCESS:          0  itHIT:          0  itMISS:          0  dtACCESS:          0  dtHIT:          0  dtMISS:          0
cpu0_L1D PREFETCH     ACCESS:   12830792  HIT:   11152791  MISS:    1678001  iACCESS:          0  iHIT:          0  iMISS:          0  dACCESS:   12830792  dHIT:   11152791  dMISS:    1678001  itACCESS:          0  itHIT:          0  itMISS:          0  dtACCESS:          0  dtHIT:          0  dtMISS:          0
cpu0_L1D WRITE        ACCESS:   10141824  HIT:    9675466  MISS:     466358  iACCESS:          0  iHIT:          0  iMISS:          0  dACCESS:   10141824  dHIT:    9675466  dMISS:     466358  itACCESS:          0  itHIT:          0  itMISS:          0  dtACCESS:          0  dtHIT:          0  dtMISS:          0
cpu0_L1D TRANSLATION  ACCESS:     287334  HIT:      24380  MISS:     262954  iACCESS:          0  iHIT:          0  iMISS:          0  dACCESS:          0  dHIT:          0  dMISS:          0  itACCESS:      93060  itHIT:      13006  itMISS:      80054  dtACCESS:     194274  dtHIT:      11374  dtMISS:     182900
cpu0_L1D PREFETCH  REQUESTED:   19375446  ISSUED:   17262142  CROSSED:          0  USEFUL:     310157  USELESS:     702354
cpu0_L1D AVERAGE iMISS LATENCY: 0 cycles
cpu0_L1D AVERAGE dMISS LATENCY: 40.8485 cycles
cpu0_L1D AVERAGE itMISS LATENCY: 1.67466 cycles
cpu0_L1D AVERAGE dtMISS LATENCY: 4.19109 cycles
cpu0_L1D PAGE CROSSINGS (TLB HIT):         0 
cpu0_L1D PAGE CROSSINGS (TLB MISS):         0 
cpu0_L1D AVERAGE MISS LATENCY: 46.7142 cycles
cpu0_L2C TOTAL       ACCESS:    7278745  HIT:    2253101  MISS:    5025644  iACCESS:    3378973  iHIT:    1253646  iMISS:    2125327  dACCESS:    3642893  dHIT:     879532  dMISS:    2763361  itACCESS:      80054  itHIT:      40101  itMISS:      39953  dtACCESS:     176825  dtHIT:      79822  dtMISS:      97003
cpu0_L2C LOAD         ACCESS:    1725349  HIT:     451735  MISS:    1273614  iACCESS:     773117  iHIT:     260911  iMISS:     512206  dACCESS:     952232  dHIT:     190824  dMISS:     761408  itACCESS:          0  itHIT:          0  itMISS:          0  dtACCESS:          0  dtHIT:          0  dtMISS:          0
cpu0_L2C RFO          ACCESS:     163129  HIT:      31606  MISS:     131523  iACCESS:          0  iHIT:          0  iMISS:          0  dACCESS:     163129  dHIT:      31606  dMISS:     131523  itACCESS:          0  itHIT:          0  itMISS:          0  dtACCESS:          0  dtHIT:          0  dtMISS:          0
cpu0_L2C PREFETCH     ACCESS:    4859537  HIT:    1505545  MISS:    3353992  iACCESS:    2605856  iHIT:     992735  iMISS:    1613121  dACCESS:    2253681  dHIT:     512810  dMISS:    1740871  itACCESS:          0  itHIT:          0  itMISS:          0  dtACCESS:          0  dtHIT:          0  dtMISS:          0
cpu0_L2C WRITE        ACCESS:     273851  HIT:     144292  MISS:     129559  iACCESS:          0  iHIT:          0  iMISS:          0  dACCESS:     273851  dHIT:     144292  dMISS:     129559  itACCESS:          0  itHIT:          0  itMISS:          0  dtACCESS:          0  dtHIT:          0  dtMISS:          0
cpu0_L2C TRANSLATION  ACCESS:     256879  HIT:     119923  MISS:     136956  iACCESS:          0  iHIT:          0  iMISS:          0  dACCESS:          0  dHIT:          0  dMISS:          0  itACCESS:      80054  itHIT:      40101  itMISS:      39953  dtACCESS:     176825  dtHIT:      79822  dtMISS:      97003
cpu0_L2C PREFETCH  REQUESTED:    1510255  ISSUED:    1510220  CROSSED:          0  USEFUL:     409340  USELESS:     380389
cpu0_L2C AVERAGE iMISS LATENCY: 25.7989 cycles
cpu0_L2C AVERAGE dMISS LATENCY: 43.6405 cycles
cpu0_L2C AVERAGE itMISS LATENCY: 1.25032 cycles
cpu0_L2C AVERAGE dtMISS LATENCY: 3.17128 cycles
cpu0_L2C PAGE CROSSINGS (TLB HIT):         0 
cpu0_L2C PAGE CROSSINGS (TLB MISS):         0 
cpu0_L2C AVERAGE MISS LATENCY: 73.861 cycles
LLC TOTAL       ACCESS:    4909298  HIT:    3156621  MISS:    1752677  iACCESS:    2044532  iHIT:    1436757  iMISS:     607775  dACCESS:    2727810  dHIT:    1688836  dMISS:    1038974  itACCESS:      39953  itHIT:       8779  itMISS:      31174  dtACCESS:      97003  dtHIT:      22249  dtMISS:      74754
LLC LOAD         ACCESS:    1267011  HIT:     876339  MISS:     390672  iACCESS:     510962  iHIT:     383217  iMISS:     127745  dACCESS:     756049  dHIT:     493122  dMISS:     262927  itACCESS:          0  itHIT:          0  itMISS:          0  dtACCESS:          0  dtHIT:          0  dtMISS:          0
LLC RFO          ACCESS:     131492  HIT:      68366  MISS:      63126  iACCESS:          0  iHIT:          0  iMISS:          0  dACCESS:     131492  dHIT:      68366  dMISS:      63126  itACCESS:          0  itHIT:          0  itMISS:          0  dtACCESS:          0  dtHIT:          0  dtMISS:          0
LLC PREFETCH     ACCESS:    3167867  HIT:    1978095  MISS:    1189772  iACCESS:    1533570  iHIT:    1053540  iMISS:     480030  dACCESS:    1634297  dHIT:     924555  dMISS:     709742  itACCESS:          0  itHIT:          0  itMISS:          0  dtACCESS:          0  dtHIT:          0  dtMISS:          0
LLC WRITE        ACCESS:     205972  HIT:     202793  MISS:       3179  iACCESS:          0  iHIT:          0  iMISS:          0  dACCESS:     205972  dHIT:     202793  dMISS:       3179  itACCESS:          0  itHIT:          0  itMISS:          0  dtACCESS:          0  dtHIT:          0  dtMISS:          0
LLC TRANSLATION  ACCESS:     136956  HIT:      31028  MISS:     105928  iACCESS:          0  iHIT:          0  iMISS:          0  dACCESS:          0  dHIT:          0  dMISS:          0  itACCESS:      39953  itHIT:       8779  itMISS:      31174  dtACCESS:      97003  dtHIT:      22249  dtMISS:      74754
LLC PREFETCH  REQUESTED:          0  ISSUED:          0  CROSSED:          0  USEFUL:          0  USELESS:          0
LLC AVERAGE iMISS LATENCY: 51.3435 cycles
LLC AVERAGE dMISS LATENCY: 98.0734 cycles
LLC AVERAGE itMISS LATENCY: 3.13572 cycles
LLC AVERAGE dtMISS LATENCY: 8.00396 cycles
LLC PAGE CROSSINGS (TLB HIT):         0 
LLC PAGE CROSSINGS (TLB MISS):         0 
LLC AVERAGE MISS LATENCY: 160.557 cycles

PageTableWalker TOTAL       ACCESS:     115535  
PageTableWalker AVERAGE LATENCY: 3.82931 cycles
PageTableWalker TOTAL LATENCY: 442419 cycles

DRAM Statistics
Channel 0
 RQ ROW_BUFFER_HIT:     494507
  ROW_BUFFER_MISS:    1239550
 AVG DBUS CONGESTED CYCLE:    3.64664
 WQ ROW_BUFFER_HIT:      40038
  ROW_BUFFER_MISS:      33448  FULL:          0

