last_page:0x200000000000000
VMEM_RES_CAP:0x100000
PAGE_SIZE:4096
LOG2_PAGE_SIZE:12
LOG2_PAGE_TABLE_SIZE:9
page_table_levels:5
WARNING: physical memory size is smaller than virtual memory size
FDiP enabled with aggresivity 16

*** ChampSim Multicore Out-of-Order Simulator ***

Warmup Instructions: 50000000
Simulation Instructions: 100000000
Number of CPUs: 1
Small page size: 4096
Large page size: 2097152

CPU 0 Bimodal branch predictor
Basic BTB sets: 1024 ways: 8 indirect buffer size: 4096 RAS size: 64
Instruction page size distrubution: 0
Loading instruction page size distribution from /home/bsc/bsc018186/scratch/itp_asplos25_AE/dump/srv44_ap.pdst
Data page size distrubution: 0
Loading data page size distribution from /home/bsc/bsc018186/scratch/itp_asplos25_AE/dump/srv44_ap.pdst
cpu0_L2C IP-based stride prefetcher
cpu0_L1D next line prefetcher
cpu0_L1I next line prefetcher
Off-chip DRAM Size: 4 GiB Channels: 1 Width: 64-bit Data Rate: 3200 MT/s
Heartbeat CPU 0 instructions: 10000003 cycles: 2500196 heartbeat IPC: 3.99969 cumulative IPC: 3.99969 (Simulation time: 0 hr 0 min 35 sec) 
Heartbeat CPU 0 instructions: 20000001 cycles: 5000302 heartbeat IPC: 3.99983 cumulative IPC: 3.99976 (Simulation time: 0 hr 1 min 12 sec) 
Heartbeat CPU 0 instructions: 30000001 cycles: 7500338 heartbeat IPC: 3.99995 cumulative IPC: 3.99982 (Simulation time: 0 hr 1 min 56 sec) 
Heartbeat CPU 0 instructions: 40000002 cycles: 10000374 heartbeat IPC: 3.99995 cumulative IPC: 3.99986 (Simulation time: 0 hr 2 min 37 sec) 
Heartbeat CPU 0 instructions: 50000002 cycles: 12500390 heartbeat IPC: 3.99998 cumulative IPC: 3.99988 (Simulation time: 0 hr 3 min 15 sec) 
Warmup finished CPU 0 instructions: 50000002 cycles: 12500391 cumulative IPC: 3.99988 (Simulation time: 0 hr 3 min 15 sec) 

Warmup complete CPU 0 instructions: 50000002 cycles: 12500391 (Simulation time: 0 hr 3 min 15 sec) 

Heartbeat CPU 0 instructions: 60000003 cycles: 27758221 heartbeat IPC: 0.655402 cumulative IPC: 0.655402 (Simulation time: 0 hr 4 min 16 sec) 
Heartbeat CPU 0 instructions: 70000000 cycles: 42203035 heartbeat IPC: 0.69229 cumulative IPC: 0.673341 (Simulation time: 0 hr 5 min 17 sec) 
Heartbeat CPU 0 instructions: 80000000 cycles: 56597748 heartbeat IPC: 0.6947 cumulative IPC: 0.680313 (Simulation time: 0 hr 6 min 17 sec) 
Heartbeat CPU 0 instructions: 90000002 cycles: 70524730 heartbeat IPC: 0.718031 cumulative IPC: 0.689366 (Simulation time: 0 hr 7 min 17 sec) 
Heartbeat CPU 0 instructions: 100000003 cycles: 84688105 heartbeat IPC: 0.706047 cumulative IPC: 0.692639 (Simulation time: 0 hr 8 min 17 sec) 
*** Reached end of trace: /gpfs/projects/bsc18/MN4/bsc18/romol/ChampSim/traces/qualcomm_srv/srv44_ap.champsimtrace.xz
Heartbeat CPU 0 instructions: 110000002 cycles: 99208535 heartbeat IPC: 0.688685 cumulative IPC: 0.691977 (Simulation time: 0 hr 9 min 19 sec) 
Heartbeat CPU 0 instructions: 120000000 cycles: 114087604 heartbeat IPC: 0.672085 cumulative IPC: 0.689064 (Simulation time: 0 hr 10 min 20 sec) 
Heartbeat CPU 0 instructions: 130000000 cycles: 127944600 heartbeat IPC: 0.721658 cumulative IPC: 0.692976 (Simulation time: 0 hr 11 min 19 sec) 
Heartbeat CPU 0 instructions: 140000001 cycles: 141463097 heartbeat IPC: 0.739728 cumulative IPC: 0.697877 (Simulation time: 0 hr 12 min 19 sec) 
Heartbeat CPU 0 instructions: 150000000 cycles: 155701279 heartbeat IPC: 0.702337 cumulative IPC: 0.69832 (Simulation time: 0 hr 13 min 19 sec) 
Simulation finished CPU 0 instructions: 100000001 cycles: 143200890 cumulative IPC: 0.69832 (Simulation time: 0 hr 13 min 19 sec) 

Simulation complete CPU 0 instructions: 100000001 cycles: 143200890 (Simulation time: 0 hr 13 min 19 sec) 


ChampSim completed all CPUs

Saving instructions large page distribution to /home/bsc/bsc018186/scratch/itp_asplos25_AE/dump/srv44_ap.pdst...
Saving data large page distribution to /home/bsc/bsc018186/scratch/itp_asplos25_AE/dump/srv44_ap.pdst...
=== Simulation ===
CPU 0 runs /gpfs/projects/bsc18/MN4/bsc18/romol/ChampSim/traces/qualcomm_srv/srv44_ap.champsimtrace.xz

Region of Interest Statistics

CPU 0 cumulative IPC: 0.69832 instructions: 100000001 cycles: 143200890
CPU 0 Branch Prediction Accuracy: 82.6949% MPKI: 31.0017 Average ROB Occupancy at Mispredict: 12.6679
Branch type MPKI
BRANCH_DIRECT_JUMP: 1.04265
BRANCH_INDIRECT: 15.9928
BRANCH_CONDITIONAL: 10.2125
BRANCH_DIRECT_CALL: 1.88784
BRANCH_INDIRECT_CALL: 0.51582
BRANCH_RETURN: 1.35007

Instructions large pages: 0
Instructions small pages: 962
Large page distribution for instructions: 0%

Data large pages: 0
Data small pages: 9382
Large page distribution for data: 0%

cpu0_L1I TOTAL       ACCESS:   35632328  HIT:   27233749  MISS:    8398579  iACCESS:   35632328  iHIT:   27233749  iMISS:    8398579  dACCESS:          0  dHIT:          0  dMISS:          0  itACCESS:          0  itHIT:          0  itMISS:          0  dtACCESS:          0  dtHIT:          0  dtMISS:          0
cpu0_L1I LOAD         ACCESS:   10442808  HIT:    8094623  MISS:    2348185  iACCESS:   10442808  iHIT:    8094623  iMISS:    2348185  dACCESS:          0  dHIT:          0  dMISS:          0  itACCESS:          0  itHIT:          0  itMISS:          0  dtACCESS:          0  dtHIT:          0  dtMISS:          0
cpu0_L1I RFO          ACCESS:          0  HIT:          0  MISS:          0  iACCESS:          0  iHIT:          0  iMISS:          0  dACCESS:          0  dHIT:          0  dMISS:          0  itACCESS:          0  itHIT:          0  itMISS:          0  dtACCESS:          0  dtHIT:          0  dtMISS:          0
cpu0_L1I PREFETCH     ACCESS:   25189520  HIT:   19139126  MISS:    6050394  iACCESS:   25189520  iHIT:   19139126  iMISS:    6050394  dACCESS:          0  dHIT:          0  dMISS:          0  itACCESS:          0  itHIT:          0  itMISS:          0  dtACCESS:          0  dtHIT:          0  dtMISS:          0
cpu0_L1I WRITE        ACCESS:          0  HIT:          0  MISS:          0  iACCESS:          0  iHIT:          0  iMISS:          0  dACCESS:          0  dHIT:          0  dMISS:          0  itACCESS:          0  itHIT:          0  itMISS:          0  dtACCESS:          0  dtHIT:          0  dtMISS:          0
cpu0_L1I TRANSLATION  ACCESS:          0  HIT:          0  MISS:          0  iACCESS:          0  iHIT:          0  iMISS:          0  dACCESS:          0  dHIT:          0  dMISS:          0  itACCESS:          0  itHIT:          0  itMISS:          0  dtACCESS:          0  dtHIT:          0  dtMISS:          0
cpu0_L1I PREFETCH  REQUESTED:   27511287  ISSUED:   27508923  CROSSED:          0  USEFUL:    1941942  USELESS:     627664
cpu0_L1I AVERAGE iMISS LATENCY: 13.4134 cycles
cpu0_L1I AVERAGE dMISS LATENCY: 0 cycles
cpu0_L1I AVERAGE itMISS LATENCY: 0 cycles
cpu0_L1I AVERAGE dtMISS LATENCY: 0 cycles
cpu0_L1I PAGE CROSSINGS (TLB HIT):         0 
cpu0_L1I PAGE CROSSINGS (TLB MISS):         0 
cpu0_L1I AVERAGE MISS LATENCY: 13.4134 cycles
cpu0_ITLB TOTAL       ACCESS:   29489402  HIT:   27558311  MISS:    1931091  iACCESS:   29489402  iHIT:   27558311  iMISS:    1931091  dACCESS:          0  dHIT:          0  dMISS:          0  itACCESS:          0  itHIT:          0  itMISS:          0  dtACCESS:          0  dtHIT:          0  dtMISS:          0
cpu0_ITLB LOAD         ACCESS:   29489402  HIT:   27558311  MISS:    1931091  iACCESS:   29489402  iHIT:   27558311  iMISS:    1931091  dACCESS:          0  dHIT:          0  dMISS:          0  itACCESS:          0  itHIT:          0  itMISS:          0  dtACCESS:          0  dtHIT:          0  dtMISS:          0
cpu0_ITLB RFO          ACCESS:          0  HIT:          0  MISS:          0  iACCESS:          0  iHIT:          0  iMISS:          0  dACCESS:          0  dHIT:          0  dMISS:          0  itACCESS:          0  itHIT:          0  itMISS:          0  dtACCESS:          0  dtHIT:          0  dtMISS:          0
cpu0_ITLB PREFETCH     ACCESS:          0  HIT:          0  MISS:          0  iACCESS:          0  iHIT:          0  iMISS:          0  dACCESS:          0  dHIT:          0  dMISS:          0  itACCESS:          0  itHIT:          0  itMISS:          0  dtACCESS:          0  dtHIT:          0  dtMISS:          0
cpu0_ITLB WRITE        ACCESS:          0  HIT:          0  MISS:          0  iACCESS:          0  iHIT:          0  iMISS:          0  dACCESS:          0  dHIT:          0  dMISS:          0  itACCESS:          0  itHIT:          0  itMISS:          0  dtACCESS:          0  dtHIT:          0  dtMISS:          0
cpu0_ITLB TRANSLATION  ACCESS:          0  HIT:          0  MISS:          0  iACCESS:          0  iHIT:          0  iMISS:          0  dACCESS:          0  dHIT:          0  dMISS:          0  itACCESS:          0  itHIT:          0  itMISS:          0  dtACCESS:          0  dtHIT:          0  dtMISS:          0
cpu0_ITLB PREFETCH  REQUESTED:          0  ISSUED:          0  CROSSED:          0  USEFUL:     316791  USELESS:      64188
cpu0_ITLB AVERAGE iMISS LATENCY: 3.12936 cycles
cpu0_ITLB AVERAGE dMISS LATENCY: 0 cycles
cpu0_ITLB AVERAGE itMISS LATENCY: 0 cycles
cpu0_ITLB AVERAGE dtMISS LATENCY: 0 cycles
cpu0_ITLB PAGE CROSSINGS (TLB HIT):         0 
cpu0_ITLB PAGE CROSSINGS (TLB MISS):         0 
cpu0_ITLB AVERAGE MISS LATENCY: 3.12936 cycles
cpu0_DTLB TOTAL       ACCESS:   27864899  HIT:   26088524  MISS:    1776375  iACCESS:          0  iHIT:          0  iMISS:          0  dACCESS:   27864899  dHIT:   26088524  dMISS:    1776375  itACCESS:          0  itHIT:          0  itMISS:          0  dtACCESS:          0  dtHIT:          0  dtMISS:          0
cpu0_DTLB LOAD         ACCESS:   27864899  HIT:   26088524  MISS:    1776375  iACCESS:          0  iHIT:          0  iMISS:          0  dACCESS:   27864899  dHIT:   26088524  dMISS:    1776375  itACCESS:          0  itHIT:          0  itMISS:          0  dtACCESS:          0  dtHIT:          0  dtMISS:          0
cpu0_DTLB RFO          ACCESS:          0  HIT:          0  MISS:          0  iACCESS:          0  iHIT:          0  iMISS:          0  dACCESS:          0  dHIT:          0  dMISS:          0  itACCESS:          0  itHIT:          0  itMISS:          0  dtACCESS:          0  dtHIT:          0  dtMISS:          0
cpu0_DTLB PREFETCH     ACCESS:          0  HIT:          0  MISS:          0  iACCESS:          0  iHIT:          0  iMISS:          0  dACCESS:          0  dHIT:          0  dMISS:          0  itACCESS:          0  itHIT:          0  itMISS:          0  dtACCESS:          0  dtHIT:          0  dtMISS:          0
cpu0_DTLB WRITE        ACCESS:          0  HIT:          0  MISS:          0  iACCESS:          0  iHIT:          0  iMISS:          0  dACCESS:          0  dHIT:          0  dMISS:          0  itACCESS:          0  itHIT:          0  itMISS:          0  dtACCESS:          0  dtHIT:          0  dtMISS:          0
cpu0_DTLB TRANSLATION  ACCESS:          0  HIT:          0  MISS:          0  iACCESS:          0  iHIT:          0  iMISS:          0  dACCESS:          0  dHIT:          0  dMISS:          0  itACCESS:          0  itHIT:          0  itMISS:          0  dtACCESS:          0  dtHIT:          0  dtMISS:          0
cpu0_DTLB PREFETCH  REQUESTED:          0  ISSUED:          0  CROSSED:          0  USEFUL:          0  USELESS:          0
cpu0_DTLB AVERAGE iMISS LATENCY: 0 cycles
cpu0_DTLB AVERAGE dMISS LATENCY: 11.0022 cycles
cpu0_DTLB AVERAGE itMISS LATENCY: 0 cycles
cpu0_DTLB AVERAGE dtMISS LATENCY: 0 cycles
cpu0_DTLB PAGE CROSSINGS (TLB HIT):         0 
cpu0_DTLB PAGE CROSSINGS (TLB MISS):         0 
cpu0_DTLB AVERAGE MISS LATENCY: 11.0022 cycles
cpu0_STLB TOTAL       ACCESS:    1465355  HIT:    1295997  MISS:     169358  iACCESS:     380995  iHIT:     322055  iMISS:      58940  dACCESS:    1084360  dHIT:     973942  dMISS:     110418  itACCESS:          0  itHIT:          0  itMISS:          0  dtACCESS:          0  dtHIT:          0  dtMISS:          0
cpu0_STLB LOAD         ACCESS:    1465355  HIT:    1295997  MISS:     169358  iACCESS:     380995  iHIT:     322055  iMISS:      58940  dACCESS:    1084360  dHIT:     973942  dMISS:     110418  itACCESS:          0  itHIT:          0  itMISS:          0  dtACCESS:          0  dtHIT:          0  dtMISS:          0
cpu0_STLB RFO          ACCESS:          0  HIT:          0  MISS:          0  iACCESS:          0  iHIT:          0  iMISS:          0  dACCESS:          0  dHIT:          0  dMISS:          0  itACCESS:          0  itHIT:          0  itMISS:          0  dtACCESS:          0  dtHIT:          0  dtMISS:          0
cpu0_STLB PREFETCH     ACCESS:          0  HIT:          0  MISS:          0  iACCESS:          0  iHIT:          0  iMISS:          0  dACCESS:          0  dHIT:          0  dMISS:          0  itACCESS:          0  itHIT:          0  itMISS:          0  dtACCESS:          0  dtHIT:          0  dtMISS:          0
cpu0_STLB WRITE        ACCESS:          0  HIT:          0  MISS:          0  iACCESS:          0  iHIT:          0  iMISS:          0  dACCESS:          0  dHIT:          0  dMISS:          0  itACCESS:          0  itHIT:          0  itMISS:          0  dtACCESS:          0  dtHIT:          0  dtMISS:          0
cpu0_STLB TRANSLATION  ACCESS:          0  HIT:          0  MISS:          0  iACCESS:          0  iHIT:          0  iMISS:          0  dACCESS:          0  dHIT:          0  dMISS:          0  itACCESS:          0  itHIT:          0  itMISS:          0  dtACCESS:          0  dtHIT:          0  dtMISS:          0
cpu0_STLB PREFETCH  REQUESTED:          0  ISSUED:          0  CROSSED:          0  USEFUL:          0  USELESS:          0
cpu0_STLB AVERAGE iMISS LATENCY: 17.9295 cycles
cpu0_STLB AVERAGE dMISS LATENCY: 64.3413 cycles
cpu0_STLB AVERAGE itMISS LATENCY: 0 cycles
cpu0_STLB AVERAGE dtMISS LATENCY: 0 cycles
cpu0_STLB PAGE CROSSINGS (TLB HIT):         0 
cpu0_STLB PAGE CROSSINGS (TLB MISS):         0 
cpu0_STLB AVERAGE MISS LATENCY: 82.2708 cycles
cpu0_L1D TOTAL       ACCESS:   41572740  HIT:   38140992  MISS:    3431748  iACCESS:          0  iHIT:          0  iMISS:          0  dACCESS:   41344221  dHIT:   38120818  dMISS:    3223403  itACCESS:      63917  itHIT:       9273  itMISS:      54644  dtACCESS:     164602  dtHIT:      10901  dtMISS:     153701
cpu0_L1D LOAD         ACCESS:   19057512  HIT:   17588042  MISS:    1469470  iACCESS:          0  iHIT:          0  iMISS:          0  dACCESS:   19057512  dHIT:   17588042  dMISS:    1469470  itACCESS:          0  itHIT:          0  itMISS:          0  dtACCESS:          0  dtHIT:          0  dtMISS:          0
cpu0_L1D RFO          ACCESS:          0  HIT:          0  MISS:          0  iACCESS:          0  iHIT:          0  iMISS:          0  dACCESS:          0  dHIT:          0  dMISS:          0  itACCESS:          0  itHIT:          0  itMISS:          0  dtACCESS:          0  dtHIT:          0  dtMISS:          0
cpu0_L1D PREFETCH     ACCESS:   12110220  HIT:   10777681  MISS:    1332539  iACCESS:          0  iHIT:          0  iMISS:          0  dACCESS:   12110220  dHIT:   10777681  dMISS:    1332539  itACCESS:          0  itHIT:          0  itMISS:          0  dtACCESS:          0  dtHIT:          0  dtMISS:          0
cpu0_L1D WRITE        ACCESS:   10176489  HIT:    9755095  MISS:     421394  iACCESS:          0  iHIT:          0  iMISS:          0  dACCESS:   10176489  dHIT:    9755095  dMISS:     421394  itACCESS:          0  itHIT:          0  itMISS:          0  dtACCESS:          0  dtHIT:          0  dtMISS:          0
cpu0_L1D TRANSLATION  ACCESS:     228519  HIT:      20174  MISS:     208345  iACCESS:          0  iHIT:          0  iMISS:          0  dACCESS:          0  dHIT:          0  dMISS:          0  itACCESS:      63917  itHIT:       9273  itMISS:      54644  dtACCESS:     164602  dtHIT:      10901  dtMISS:     153701
cpu0_L1D PREFETCH  REQUESTED:   19057512  ISSUED:   16904695  CROSSED:          0  USEFUL:     309149  USELESS:     698911
cpu0_L1D AVERAGE iMISS LATENCY: 0 cycles
cpu0_L1D AVERAGE dMISS LATENCY: 33.9616 cycles
cpu0_L1D AVERAGE itMISS LATENCY: 0.738026 cycles
cpu0_L1D AVERAGE dtMISS LATENCY: 2.50344 cycles
cpu0_L1D PAGE CROSSINGS (TLB HIT):         0 
cpu0_L1D PAGE CROSSINGS (TLB MISS):         0 
cpu0_L1D AVERAGE MISS LATENCY: 37.2031 cycles
cpu0_L2C TOTAL       ACCESS:    7014043  HIT:    1694438  MISS:    5319605  iACCESS:    3310359  iHIT:     867187  iMISS:    2443172  dACCESS:    3503542  dHIT:     712720  dMISS:    2790822  itACCESS:      54644  itHIT:      38672  itMISS:      15972  dtACCESS:     145498  dtHIT:      75859  dtMISS:      69639
cpu0_L2C LOAD         ACCESS:    1704080  HIT:     299689  MISS:    1404391  iACCESS:     779716  iHIT:     147275  iMISS:     632441  dACCESS:     924364  dHIT:     152414  dMISS:     771950  itACCESS:          0  itHIT:          0  itMISS:          0  dtACCESS:          0  dtHIT:          0  dtMISS:          0
cpu0_L2C RFO          ACCESS:     158978  HIT:      50547  MISS:     108431  iACCESS:          0  iHIT:          0  iMISS:          0  dACCESS:     158978  dHIT:      50547  dMISS:     108431  itACCESS:          0  itHIT:          0  itMISS:          0  dtACCESS:          0  dtHIT:          0  dtMISS:          0
cpu0_L2C PREFETCH     ACCESS:    4670089  HIT:    1097117  MISS:    3572972  iACCESS:    2530643  iHIT:     719912  iMISS:    1810731  dACCESS:    2139446  dHIT:     377205  dMISS:    1762241  itACCESS:          0  itHIT:          0  itMISS:          0  dtACCESS:          0  dtHIT:          0  dtMISS:          0
cpu0_L2C WRITE        ACCESS:     280754  HIT:     132554  MISS:     148200  iACCESS:          0  iHIT:          0  iMISS:          0  dACCESS:     280754  dHIT:     132554  dMISS:     148200  itACCESS:          0  itHIT:          0  itMISS:          0  dtACCESS:          0  dtHIT:          0  dtMISS:          0
cpu0_L2C TRANSLATION  ACCESS:     200142  HIT:     114531  MISS:      85611  iACCESS:          0  iHIT:          0  iMISS:          0  dACCESS:          0  dHIT:          0  dMISS:          0  itACCESS:      54644  itHIT:      38672  itMISS:      15972  dtACCESS:     145498  dtHIT:      75859  dtMISS:      69639
cpu0_L2C PREFETCH  REQUESTED:    1395251  ISSUED:    1395251  CROSSED:          0  USEFUL:     414419  USELESS:     379302
cpu0_L2C AVERAGE iMISS LATENCY: 15.3056 cycles
cpu0_L2C AVERAGE dMISS LATENCY: 25.6113 cycles
cpu0_L2C AVERAGE itMISS LATENCY: 0.38038 cycles
cpu0_L2C AVERAGE dtMISS LATENCY: 1.35415 cycles
cpu0_L2C PAGE CROSSINGS (TLB HIT):         0 
cpu0_L2C PAGE CROSSINGS (TLB MISS):         0 
cpu0_L2C AVERAGE MISS LATENCY: 42.6514 cycles
LLC TOTAL       ACCESS:    5196462  HIT:    4353137  MISS:     843325  iACCESS:    2386153  iHIT:    2138725  iMISS:     247428  dACCESS:    2724698  dHIT:    2171844  dMISS:     552854  itACCESS:      15972  itHIT:       6043  itMISS:       9929  dtACCESS:      69639  dtHIT:      36525  dtMISS:      33114
LLC LOAD         ACCESS:    1402446  HIT:    1220667  MISS:     181779  iACCESS:     630864  iHIT:     579277  iMISS:      51587  dACCESS:     771582  dHIT:     641390  dMISS:     130192  itACCESS:          0  itHIT:          0  itMISS:          0  dtACCESS:          0  dtHIT:          0  dtMISS:          0
LLC RFO          ACCESS:     108431  HIT:      70133  MISS:      38298  iACCESS:          0  iHIT:          0  iMISS:          0  dACCESS:     108431  dHIT:      70133  dMISS:      38298  itACCESS:          0  itHIT:          0  itMISS:          0  dtACCESS:          0  dtHIT:          0  dtMISS:          0
LLC PREFETCH     ACCESS:    3462114  HIT:    2890728  MISS:     571386  iACCESS:    1755289  iHIT:    1559448  iMISS:     195841  dACCESS:    1706825  dHIT:    1331280  dMISS:     375545  itACCESS:          0  itHIT:          0  itMISS:          0  dtACCESS:          0  dtHIT:          0  dtMISS:          0
LLC WRITE        ACCESS:     137860  HIT:     129041  MISS:       8819  iACCESS:          0  iHIT:          0  iMISS:          0  dACCESS:     137860  dHIT:     129041  dMISS:       8819  itACCESS:          0  itHIT:          0  itMISS:          0  dtACCESS:          0  dtHIT:          0  dtMISS:          0
LLC TRANSLATION  ACCESS:      85611  HIT:      42568  MISS:      43043  iACCESS:          0  iHIT:          0  iMISS:          0  dACCESS:          0  dHIT:          0  dMISS:          0  itACCESS:      15972  itHIT:       6043  itMISS:       9929  dtACCESS:      69639  dtHIT:      36525  dtMISS:      33114
LLC PREFETCH  REQUESTED:          0  ISSUED:          0  CROSSED:          0  USEFUL:          0  USELESS:          0
LLC AVERAGE iMISS LATENCY: 41.9405 cycles
LLC AVERAGE dMISS LATENCY: 102.312 cycles
LLC AVERAGE itMISS LATENCY: 2.02856 cycles
LLC AVERAGE dtMISS LATENCY: 6.93482 cycles
LLC PAGE CROSSINGS (TLB HIT):         0 
LLC PAGE CROSSINGS (TLB MISS):         0 
LLC AVERAGE MISS LATENCY: 153.216 cycles

PageTableWalker TOTAL       ACCESS:      84491  
PageTableWalker AVERAGE LATENCY: 4.55687 cycles
PageTableWalker TOTAL LATENCY: 385014 cycles

DRAM Statistics
Channel 0
 RQ ROW_BUFFER_HIT:     249475
  ROW_BUFFER_MISS:     584986
 AVG DBUS CONGESTED CYCLE:    3.62752
 WQ ROW_BUFFER_HIT:      15947
  ROW_BUFFER_MISS:      21188  FULL:          0

