last_page:0x200000000000000
VMEM_RES_CAP:0x100000
PAGE_SIZE:4096
LOG2_PAGE_SIZE:12
LOG2_PAGE_TABLE_SIZE:9
page_table_levels:5
WARNING: physical memory size is smaller than virtual memory size
FDiP enabled with aggresivity 16

*** ChampSim Multicore Out-of-Order Simulator ***

Warmup Instructions: 50000000
Simulation Instructions: 100000000
Number of CPUs: 1
Small page size: 4096
Large page size: 2097152

CPU 0 Bimodal branch predictor
Basic BTB sets: 1024 ways: 8 indirect buffer size: 4096 RAS size: 64
Instruction page size distrubution: 0
Loading instruction page size distribution from /home/bsc/bsc018186/scratch/itp_asplos25_AE/dump/srv495_ap.pdst
Data page size distrubution: 0
Loading data page size distribution from /home/bsc/bsc018186/scratch/itp_asplos25_AE/dump/srv495_ap.pdst
cpu0_L2C IP-based stride prefetcher
cpu0_L1D next line prefetcher
cpu0_STLB using iTP with max lru@8
cpu0_STLB using iTP with instr@0 and data@2
Init sat counter with 3 bits (max:50).
cpu0_L1I next line prefetcher
Off-chip DRAM Size: 4 GiB Channels: 1 Width: 64-bit Data Rate: 3200 MT/s
Heartbeat CPU 0 instructions: 10000001 cycles: 2500205 heartbeat IPC: 3.99968 cumulative IPC: 3.99968 (Simulation time: 0 hr 0 min 39 sec) 
Heartbeat CPU 0 instructions: 20000001 cycles: 5000208 heartbeat IPC: 4 cumulative IPC: 3.99984 (Simulation time: 0 hr 1 min 19 sec) 
Heartbeat CPU 0 instructions: 30000001 cycles: 7500283 heartbeat IPC: 3.99989 cumulative IPC: 3.99985 (Simulation time: 0 hr 1 min 59 sec) 
Heartbeat CPU 0 instructions: 40000003 cycles: 10000314 heartbeat IPC: 3.99996 cumulative IPC: 3.99988 (Simulation time: 0 hr 2 min 40 sec) 
Heartbeat CPU 0 instructions: 50000003 cycles: 12500341 heartbeat IPC: 3.99996 cumulative IPC: 3.9999 (Simulation time: 0 hr 3 min 21 sec) 
Warmup finished CPU 0 instructions: 50000003 cycles: 12500342 cumulative IPC: 3.9999 (Simulation time: 0 hr 3 min 21 sec) 

Warmup complete CPU 0 instructions: 50000003 cycles: 12500342 (Simulation time: 0 hr 3 min 21 sec) 

Heartbeat CPU 0 instructions: 60000000 cycles: 30597127 heartbeat IPC: 0.552585 cumulative IPC: 0.552585 (Simulation time: 0 hr 4 min 30 sec) 
Heartbeat CPU 0 instructions: 70000000 cycles: 49095532 heartbeat IPC: 0.540588 cumulative IPC: 0.54652 (Simulation time: 0 hr 5 min 39 sec) 
Heartbeat CPU 0 instructions: 80000001 cycles: 66996393 heartbeat IPC: 0.558633 cumulative IPC: 0.550499 (Simulation time: 0 hr 6 min 48 sec) 
Heartbeat CPU 0 instructions: 90000004 cycles: 84598342 heartbeat IPC: 0.56812 cumulative IPC: 0.554801 (Simulation time: 0 hr 7 min 56 sec) 
Heartbeat CPU 0 instructions: 100000004 cycles: 102440166 heartbeat IPC: 0.560481 cumulative IPC: 0.555928 (Simulation time: 0 hr 9 min 4 sec) 
*** Reached end of trace: /gpfs/projects/bsc18/MN4/bsc18/romol/ChampSim/traces/qualcomm_srv/srv495_ap.champsimtrace.xz
Heartbeat CPU 0 instructions: 110000004 cycles: 120442481 heartbeat IPC: 0.555485 cumulative IPC: 0.555854 (Simulation time: 0 hr 10 min 13 sec) 
Heartbeat CPU 0 instructions: 120000004 cycles: 138904411 heartbeat IPC: 0.541656 cumulative IPC: 0.55378 (Simulation time: 0 hr 11 min 22 sec) 
Heartbeat CPU 0 instructions: 130000001 cycles: 157116881 heartbeat IPC: 0.549075 cumulative IPC: 0.553188 (Simulation time: 0 hr 12 min 32 sec) 
Heartbeat CPU 0 instructions: 140000002 cycles: 175423901 heartbeat IPC: 0.546239 cumulative IPC: 0.552407 (Simulation time: 0 hr 13 min 41 sec) 
Heartbeat CPU 0 instructions: 150000002 cycles: 194202110 heartbeat IPC: 0.532533 cumulative IPC: 0.550353 (Simulation time: 0 hr 14 min 51 sec) 
Simulation finished CPU 0 instructions: 100000000 cycles: 181701775 cumulative IPC: 0.550353 (Simulation time: 0 hr 14 min 51 sec) 

Simulation complete CPU 0 instructions: 100000000 cycles: 181701775 (Simulation time: 0 hr 14 min 51 sec) 


ChampSim completed all CPUs

Saving instructions large page distribution to /home/bsc/bsc018186/scratch/itp_asplos25_AE/dump/srv495_ap.pdst...
Saving data large page distribution to /home/bsc/bsc018186/scratch/itp_asplos25_AE/dump/srv495_ap.pdst...
=== Simulation ===
CPU 0 runs /gpfs/projects/bsc18/MN4/bsc18/romol/ChampSim/traces/qualcomm_srv/srv495_ap.champsimtrace.xz

Region of Interest Statistics

CPU 0 cumulative IPC: 0.550353 instructions: 100000000 cycles: 181701775
CPU 0 Branch Prediction Accuracy: 80.2549% MPKI: 35.6076 Average ROB Occupancy at Mispredict: 10.5047
Branch type MPKI
BRANCH_DIRECT_JUMP: 1.32006
BRANCH_INDIRECT: 17.7862
BRANCH_CONDITIONAL: 11.5962
BRANCH_DIRECT_CALL: 2.47778
BRANCH_INDIRECT_CALL: 0.692951
BRANCH_RETURN: 1.73448

Instructions large pages: 0
Instructions small pages: 1075
Large page distribution for instructions: 0%

Data large pages: 0
Data small pages: 4728
Large page distribution for data: 0%

cpu0_L1I TOTAL       ACCESS:   35698350  HIT:   27386950  MISS:    8311400  iACCESS:   35698350  iHIT:   27386950  iMISS:    8311400  dACCESS:          0  dHIT:          0  dMISS:          0  itACCESS:          0  itHIT:          0  itMISS:          0  dtACCESS:          0  dtHIT:          0  dtMISS:          0
cpu0_L1I LOAD         ACCESS:   10281661  HIT:    8008784  MISS:    2272877  iACCESS:   10281661  iHIT:    8008784  iMISS:    2272877  dACCESS:          0  dHIT:          0  dMISS:          0  itACCESS:          0  itHIT:          0  itMISS:          0  dtACCESS:          0  dtHIT:          0  dtMISS:          0
cpu0_L1I RFO          ACCESS:          0  HIT:          0  MISS:          0  iACCESS:          0  iHIT:          0  iMISS:          0  dACCESS:          0  dHIT:          0  dMISS:          0  itACCESS:          0  itHIT:          0  itMISS:          0  dtACCESS:          0  dtHIT:          0  dtMISS:          0
cpu0_L1I PREFETCH     ACCESS:   25416689  HIT:   19378166  MISS:    6038523  iACCESS:   25416689  iHIT:   19378166  iMISS:    6038523  dACCESS:          0  dHIT:          0  dMISS:          0  itACCESS:          0  itHIT:          0  itMISS:          0  dtACCESS:          0  dtHIT:          0  dtMISS:          0
cpu0_L1I WRITE        ACCESS:          0  HIT:          0  MISS:          0  iACCESS:          0  iHIT:          0  iMISS:          0  dACCESS:          0  dHIT:          0  dMISS:          0  itACCESS:          0  itHIT:          0  itMISS:          0  dtACCESS:          0  dtHIT:          0  dtMISS:          0
cpu0_L1I TRANSLATION  ACCESS:          0  HIT:          0  MISS:          0  iACCESS:          0  iHIT:          0  iMISS:          0  dACCESS:          0  dHIT:          0  dMISS:          0  itACCESS:          0  itHIT:          0  itMISS:          0  dtACCESS:          0  dtHIT:          0  dtMISS:          0
cpu0_L1I PREFETCH  REQUESTED:   27612482  ISSUED:   27610168  CROSSED:          0  USEFUL:    1978135  USELESS:     652795
cpu0_L1I AVERAGE iMISS LATENCY: 18.5936 cycles
cpu0_L1I AVERAGE dMISS LATENCY: 0 cycles
cpu0_L1I AVERAGE itMISS LATENCY: 0 cycles
cpu0_L1I AVERAGE dtMISS LATENCY: 0 cycles
cpu0_L1I PAGE CROSSINGS (TLB HIT):         0 
cpu0_L1I PAGE CROSSINGS (TLB MISS):         0 
cpu0_L1I AVERAGE MISS LATENCY: 18.5936 cycles
cpu0_ITLB TOTAL       ACCESS:   29892122  HIT:   27962082  MISS:    1930040  iACCESS:   29892122  iHIT:   27962082  iMISS:    1930040  dACCESS:          0  dHIT:          0  dMISS:          0  itACCESS:          0  itHIT:          0  itMISS:          0  dtACCESS:          0  dtHIT:          0  dtMISS:          0
cpu0_ITLB LOAD         ACCESS:   29892122  HIT:   27962082  MISS:    1930040  iACCESS:   29892122  iHIT:   27962082  iMISS:    1930040  dACCESS:          0  dHIT:          0  dMISS:          0  itACCESS:          0  itHIT:          0  itMISS:          0  dtACCESS:          0  dtHIT:          0  dtMISS:          0
cpu0_ITLB RFO          ACCESS:          0  HIT:          0  MISS:          0  iACCESS:          0  iHIT:          0  iMISS:          0  dACCESS:          0  dHIT:          0  dMISS:          0  itACCESS:          0  itHIT:          0  itMISS:          0  dtACCESS:          0  dtHIT:          0  dtMISS:          0
cpu0_ITLB PREFETCH     ACCESS:          0  HIT:          0  MISS:          0  iACCESS:          0  iHIT:          0  iMISS:          0  dACCESS:          0  dHIT:          0  dMISS:          0  itACCESS:          0  itHIT:          0  itMISS:          0  dtACCESS:          0  dtHIT:          0  dtMISS:          0
cpu0_ITLB WRITE        ACCESS:          0  HIT:          0  MISS:          0  iACCESS:          0  iHIT:          0  iMISS:          0  dACCESS:          0  dHIT:          0  dMISS:          0  itACCESS:          0  itHIT:          0  itMISS:          0  dtACCESS:          0  dtHIT:          0  dtMISS:          0
cpu0_ITLB TRANSLATION  ACCESS:          0  HIT:          0  MISS:          0  iACCESS:          0  iHIT:          0  iMISS:          0  dACCESS:          0  dHIT:          0  dMISS:          0  itACCESS:          0  itHIT:          0  itMISS:          0  dtACCESS:          0  dtHIT:          0  dtMISS:          0
cpu0_ITLB PREFETCH  REQUESTED:          0  ISSUED:          0  CROSSED:          0  USEFUL:     330449  USELESS:      61191
cpu0_ITLB AVERAGE iMISS LATENCY: 2.56889 cycles
cpu0_ITLB AVERAGE dMISS LATENCY: 0 cycles
cpu0_ITLB AVERAGE itMISS LATENCY: 0 cycles
cpu0_ITLB AVERAGE dtMISS LATENCY: 0 cycles
cpu0_ITLB PAGE CROSSINGS (TLB HIT):         0 
cpu0_ITLB PAGE CROSSINGS (TLB MISS):         0 
cpu0_ITLB AVERAGE MISS LATENCY: 2.56889 cycles
cpu0_DTLB TOTAL       ACCESS:   27997078  HIT:   26052023  MISS:    1945055  iACCESS:          0  iHIT:          0  iMISS:          0  dACCESS:   27997078  dHIT:   26052023  dMISS:    1945055  itACCESS:          0  itHIT:          0  itMISS:          0  dtACCESS:          0  dtHIT:          0  dtMISS:          0
cpu0_DTLB LOAD         ACCESS:   27997078  HIT:   26052023  MISS:    1945055  iACCESS:          0  iHIT:          0  iMISS:          0  dACCESS:   27997078  dHIT:   26052023  dMISS:    1945055  itACCESS:          0  itHIT:          0  itMISS:          0  dtACCESS:          0  dtHIT:          0  dtMISS:          0
cpu0_DTLB RFO          ACCESS:          0  HIT:          0  MISS:          0  iACCESS:          0  iHIT:          0  iMISS:          0  dACCESS:          0  dHIT:          0  dMISS:          0  itACCESS:          0  itHIT:          0  itMISS:          0  dtACCESS:          0  dtHIT:          0  dtMISS:          0
cpu0_DTLB PREFETCH     ACCESS:          0  HIT:          0  MISS:          0  iACCESS:          0  iHIT:          0  iMISS:          0  dACCESS:          0  dHIT:          0  dMISS:          0  itACCESS:          0  itHIT:          0  itMISS:          0  dtACCESS:          0  dtHIT:          0  dtMISS:          0
cpu0_DTLB WRITE        ACCESS:          0  HIT:          0  MISS:          0  iACCESS:          0  iHIT:          0  iMISS:          0  dACCESS:          0  dHIT:          0  dMISS:          0  itACCESS:          0  itHIT:          0  itMISS:          0  dtACCESS:          0  dtHIT:          0  dtMISS:          0
cpu0_DTLB TRANSLATION  ACCESS:          0  HIT:          0  MISS:          0  iACCESS:          0  iHIT:          0  iMISS:          0  dACCESS:          0  dHIT:          0  dMISS:          0  itACCESS:          0  itHIT:          0  itMISS:          0  dtACCESS:          0  dtHIT:          0  dtMISS:          0
cpu0_DTLB PREFETCH  REQUESTED:          0  ISSUED:          0  CROSSED:          0  USEFUL:          0  USELESS:          0
cpu0_DTLB AVERAGE iMISS LATENCY: 0 cycles
cpu0_DTLB AVERAGE dMISS LATENCY: 13.6534 cycles
cpu0_DTLB AVERAGE itMISS LATENCY: 0 cycles
cpu0_DTLB AVERAGE dtMISS LATENCY: 0 cycles
cpu0_DTLB PAGE CROSSINGS (TLB HIT):         0 
cpu0_DTLB PAGE CROSSINGS (TLB MISS):         0 
cpu0_DTLB AVERAGE MISS LATENCY: 13.6534 cycles
cpu0_STLB TOTAL       ACCESS:    1611408  HIT:    1400078  MISS:     211330  iACCESS:     391651  iHIT:     370670  iMISS:      20981  dACCESS:    1219757  dHIT:    1029408  dMISS:     190349  itACCESS:          0  itHIT:          0  itMISS:          0  dtACCESS:          0  dtHIT:          0  dtMISS:          0
cpu0_STLB LOAD         ACCESS:    1611408  HIT:    1400078  MISS:     211330  iACCESS:     391651  iHIT:     370670  iMISS:      20981  dACCESS:    1219757  dHIT:    1029408  dMISS:     190349  itACCESS:          0  itHIT:          0  itMISS:          0  dtACCESS:          0  dtHIT:          0  dtMISS:          0
cpu0_STLB RFO          ACCESS:          0  HIT:          0  MISS:          0  iACCESS:          0  iHIT:          0  iMISS:          0  dACCESS:          0  dHIT:          0  dMISS:          0  itACCESS:          0  itHIT:          0  itMISS:          0  dtACCESS:          0  dtHIT:          0  dtMISS:          0
cpu0_STLB PREFETCH     ACCESS:          0  HIT:          0  MISS:          0  iACCESS:          0  iHIT:          0  iMISS:          0  dACCESS:          0  dHIT:          0  dMISS:          0  itACCESS:          0  itHIT:          0  itMISS:          0  dtACCESS:          0  dtHIT:          0  dtMISS:          0
cpu0_STLB WRITE        ACCESS:          0  HIT:          0  MISS:          0  iACCESS:          0  iHIT:          0  iMISS:          0  dACCESS:          0  dHIT:          0  dMISS:          0  itACCESS:          0  itHIT:          0  itMISS:          0  dtACCESS:          0  dtHIT:          0  dtMISS:          0
cpu0_STLB TRANSLATION  ACCESS:          0  HIT:          0  MISS:          0  iACCESS:          0  iHIT:          0  iMISS:          0  dACCESS:          0  dHIT:          0  dMISS:          0  itACCESS:          0  itHIT:          0  itMISS:          0  dtACCESS:          0  dtHIT:          0  dtMISS:          0
cpu0_STLB PREFETCH  REQUESTED:          0  ISSUED:          0  CROSSED:          0  USEFUL:          0  USELESS:          0
cpu0_STLB AVERAGE iMISS LATENCY: 9.0184 cycles
cpu0_STLB AVERAGE dMISS LATENCY: 79.3424 cycles
cpu0_STLB AVERAGE itMISS LATENCY: 0 cycles
cpu0_STLB AVERAGE dtMISS LATENCY: 0 cycles
cpu0_STLB PAGE CROSSINGS (TLB HIT):         0 
cpu0_STLB PAGE CROSSINGS (TLB MISS):         0 
cpu0_STLB AVERAGE MISS LATENCY: 88.3608 cycles
cpu0_L1D TOTAL       ACCESS:   42543613  HIT:   38420940  MISS:    4122673  iACCESS:          0  iHIT:          0  iMISS:          0  dACCESS:   42259920  dHIT:   38403403  dMISS:    3856517  itACCESS:      24206  itHIT:       1807  itMISS:      22399  dtACCESS:     259487  dtHIT:      15730  dtMISS:     243757
cpu0_L1D LOAD         ACCESS:   19364872  HIT:   17615287  MISS:    1749585  iACCESS:          0  iHIT:          0  iMISS:          0  dACCESS:   19364872  dHIT:   17615287  dMISS:    1749585  itACCESS:          0  itHIT:          0  itMISS:          0  dtACCESS:          0  dtHIT:          0  dtMISS:          0
cpu0_L1D RFO          ACCESS:          0  HIT:          0  MISS:          0  iACCESS:          0  iHIT:          0  iMISS:          0  dACCESS:          0  dHIT:          0  dMISS:          0  itACCESS:          0  itHIT:          0  itMISS:          0  dtACCESS:          0  dtHIT:          0  dtMISS:          0
cpu0_L1D PREFETCH     ACCESS:   12748208  HIT:   11109943  MISS:    1638265  iACCESS:          0  iHIT:          0  iMISS:          0  dACCESS:   12748208  dHIT:   11109943  dMISS:    1638265  itACCESS:          0  itHIT:          0  itMISS:          0  dtACCESS:          0  dtHIT:          0  dtMISS:          0
cpu0_L1D WRITE        ACCESS:   10146840  HIT:    9678173  MISS:     468667  iACCESS:          0  iHIT:          0  iMISS:          0  dACCESS:   10146840  dHIT:    9678173  dMISS:     468667  itACCESS:          0  itHIT:          0  itMISS:          0  dtACCESS:          0  dtHIT:          0  dtMISS:          0
cpu0_L1D TRANSLATION  ACCESS:     283693  HIT:      17537  MISS:     266156  iACCESS:          0  iHIT:          0  iMISS:          0  dACCESS:          0  dHIT:          0  dMISS:          0  itACCESS:      24206  itHIT:       1807  itMISS:      22399  dtACCESS:     259487  dtHIT:      15730  dtMISS:     243757
cpu0_L1D PREFETCH  REQUESTED:   19364872  ISSUED:   17291299  CROSSED:          0  USEFUL:     312670  USELESS:     707812
cpu0_L1D AVERAGE iMISS LATENCY: 0 cycles
cpu0_L1D AVERAGE dMISS LATENCY: 39.0145 cycles
cpu0_L1D AVERAGE itMISS LATENCY: 0.411115 cycles
cpu0_L1D AVERAGE dtMISS LATENCY: 3.47937 cycles
cpu0_L1D PAGE CROSSINGS (TLB HIT):         0 
cpu0_L1D PAGE CROSSINGS (TLB MISS):         0 
cpu0_L1D AVERAGE MISS LATENCY: 42.905 cycles
cpu0_L2C TOTAL       ACCESS:    7274436  HIT:    1668521  MISS:    5605915  iACCESS:    3354090  iHIT:     854204  iMISS:    2499886  dACCESS:    3658343  dHIT:     667016  dMISS:    2991327  itACCESS:      22399  itHIT:      12044  itMISS:      10355  dtACCESS:     239604  dtHIT:     135257  dtMISS:     104347
cpu0_L2C LOAD         ACCESS:    1712667  HIT:     267673  MISS:    1444994  iACCESS:     760101  iHIT:     138049  iMISS:     622052  dACCESS:     952566  dHIT:     129624  dMISS:     822942  itACCESS:          0  itHIT:          0  itMISS:          0  dtACCESS:          0  dtHIT:          0  dtMISS:          0
cpu0_L2C RFO          ACCESS:     165496  HIT:      46189  MISS:     119307  iACCESS:          0  iHIT:          0  iMISS:          0  dACCESS:     165496  dHIT:      46189  dMISS:     119307  itACCESS:          0  itHIT:          0  itMISS:          0  dtACCESS:          0  dtHIT:          0  dtMISS:          0
cpu0_L2C PREFETCH     ACCESS:    4858961  HIT:    1080661  MISS:    3778300  iACCESS:    2593989  iHIT:     716155  iMISS:    1877834  dACCESS:    2264972  dHIT:     364506  dMISS:    1900466  itACCESS:          0  itHIT:          0  itMISS:          0  dtACCESS:          0  dtHIT:          0  dtMISS:          0
cpu0_L2C WRITE        ACCESS:     275309  HIT:     126697  MISS:     148612  iACCESS:          0  iHIT:          0  iMISS:          0  dACCESS:     275309  dHIT:     126697  dMISS:     148612  itACCESS:          0  itHIT:          0  itMISS:          0  dtACCESS:          0  dtHIT:          0  dtMISS:          0
cpu0_L2C TRANSLATION  ACCESS:     262003  HIT:     147301  MISS:     114702  iACCESS:          0  iHIT:          0  iMISS:          0  dACCESS:          0  dHIT:          0  dMISS:          0  itACCESS:      22399  itHIT:      12044  itMISS:      10355  dtACCESS:     239604  dtHIT:     135257  dtMISS:     104347
cpu0_L2C PREFETCH  REQUESTED:    1502913  ISSUED:    1502883  CROSSED:          0  USEFUL:     414495  USELESS:     433912
cpu0_L2C AVERAGE iMISS LATENCY: 22.1822 cycles
cpu0_L2C AVERAGE dMISS LATENCY: 36.3844 cycles
cpu0_L2C AVERAGE itMISS LATENCY: 0.264417 cycles
cpu0_L2C AVERAGE dtMISS LATENCY: 2.15374 cycles
cpu0_L2C PAGE CROSSINGS (TLB HIT):         0 
cpu0_L2C PAGE CROSSINGS (TLB MISS):         0 
cpu0_L2C AVERAGE MISS LATENCY: 60.9846 cycles
LLC TOTAL       ACCESS:    5423394  HIT:    3891827  MISS:    1531567  iACCESS:    2422632  iHIT:    1888003  iMISS:     534629  dACCESS:    2886060  dHIT:    1951579  dMISS:     934481  itACCESS:      10355  itHIT:       3057  itMISS:       7298  dtACCESS:     104347  dtHIT:      49188  dtMISS:      55159
LLC LOAD         ACCESS:    1439486  HIT:    1103186  MISS:     336300  iACCESS:     620703  iHIT:     508953  iMISS:     111750  dACCESS:     818783  dHIT:     594233  dMISS:     224550  itACCESS:          0  itHIT:          0  itMISS:          0  dtACCESS:          0  dtHIT:          0  dtMISS:          0
LLC RFO          ACCESS:     119304  HIT:      63699  MISS:      55605  iACCESS:          0  iHIT:          0  iMISS:          0  dACCESS:     119304  dHIT:      63699  dMISS:      55605  itACCESS:          0  itHIT:          0  itMISS:          0  dtACCESS:          0  dtHIT:          0  dtMISS:          0
LLC PREFETCH     ACCESS:    3604974  HIT:    2539158  MISS:    1065816  iACCESS:    1801929  iHIT:    1379050  iMISS:     422879  dACCESS:    1803045  dHIT:    1160108  dMISS:     642937  itACCESS:          0  itHIT:          0  itMISS:          0  dtACCESS:          0  dtHIT:          0  dtMISS:          0
LLC WRITE        ACCESS:     144928  HIT:     133539  MISS:      11389  iACCESS:          0  iHIT:          0  iMISS:          0  dACCESS:     144928  dHIT:     133539  dMISS:      11389  itACCESS:          0  itHIT:          0  itMISS:          0  dtACCESS:          0  dtHIT:          0  dtMISS:          0
LLC TRANSLATION  ACCESS:     114702  HIT:      52245  MISS:      62457  iACCESS:          0  iHIT:          0  iMISS:          0  dACCESS:          0  dHIT:          0  dMISS:          0  itACCESS:      10355  itHIT:       3057  itMISS:       7298  dtACCESS:     104347  dtHIT:      49188  dtMISS:      55159
LLC PREFETCH  REQUESTED:          0  ISSUED:          0  CROSSED:          0  USEFUL:          0  USELESS:          0
LLC AVERAGE iMISS LATENCY: 50.5805 cycles
LLC AVERAGE dMISS LATENCY: 99.3707 cycles
LLC AVERAGE itMISS LATENCY: 0.834981 cycles
LLC AVERAGE dtMISS LATENCY: 6.55343 cycles
LLC PAGE CROSSINGS (TLB HIT):         0 
LLC PAGE CROSSINGS (TLB MISS):         0 
LLC AVERAGE MISS LATENCY: 157.34 cycles

PageTableWalker TOTAL       ACCESS:     100162  
PageTableWalker AVERAGE LATENCY: 4.47812 cycles
PageTableWalker TOTAL LATENCY: 448537 cycles

DRAM Statistics
Channel 0
 RQ ROW_BUFFER_HIT:     457849
  ROW_BUFFER_MISS:    1052480
 AVG DBUS CONGESTED CYCLE:    3.63255
 WQ ROW_BUFFER_HIT:      29459
  ROW_BUFFER_MISS:      23816  FULL:          0

