last_page:0x200000000000000
VMEM_RES_CAP:0x100000
PAGE_SIZE:4096
LOG2_PAGE_SIZE:12
LOG2_PAGE_TABLE_SIZE:9
page_table_levels:5
WARNING: physical memory size is smaller than virtual memory size
FDiP enabled with aggresivity 16

*** ChampSim Multicore Out-of-Order Simulator ***

Warmup Instructions: 50000000
Simulation Instructions: 100000000
Number of CPUs: 1
Small page size: 4096
Large page size: 2097152

CPU 0 Bimodal branch predictor
Basic BTB sets: 1024 ways: 8 indirect buffer size: 4096 RAS size: 64
Instruction page size distrubution: 0
Loading instruction page size distribution from /home/bsc/bsc018186/scratch/itp_asplos25_AE/dump/srv499_ap.pdst
Data page size distrubution: 0
Loading data page size distribution from /home/bsc/bsc018186/scratch/itp_asplos25_AE/dump/srv499_ap.pdst
cpu0_L2C IP-based stride prefetcher
cpu0_L2C is using xPTP/LRU
	TLB_LOWER_STRESS_THRESHOLD:1
	TLB_UPPER_STRESS_THRESHOLD:9
	MIN_EVICTION_POSITION:4
cpu0_L1D next line prefetcher
cpu0_STLB using iTP with max lru@8
cpu0_STLB using iTP with instr@0 and data@2
Init sat counter with 3 bits (max:50).
cpu0_L1I next line prefetcher
Off-chip DRAM Size: 4 GiB Channels: 1 Width: 64-bit Data Rate: 3200 MT/s
Heartbeat CPU 0 instructions: 10000003 cycles: 2500154 heartbeat IPC: 3.99976 cumulative IPC: 3.99976 (Simulation time: 0 hr 0 min 42 sec) 
Heartbeat CPU 0 instructions: 20000002 cycles: 5000228 heartbeat IPC: 3.99989 cumulative IPC: 3.99982 (Simulation time: 0 hr 1 min 25 sec) 
Heartbeat CPU 0 instructions: 30000000 cycles: 7500255 heartbeat IPC: 3.99996 cumulative IPC: 3.99987 (Simulation time: 0 hr 2 min 8 sec) 
Heartbeat CPU 0 instructions: 40000003 cycles: 10000256 heartbeat IPC: 4 cumulative IPC: 3.9999 (Simulation time: 0 hr 2 min 50 sec) 
Heartbeat CPU 0 instructions: 50000002 cycles: 12500386 heartbeat IPC: 3.9998 cumulative IPC: 3.99988 (Simulation time: 0 hr 3 min 32 sec) 
Warmup finished CPU 0 instructions: 50000002 cycles: 12500387 cumulative IPC: 3.99988 (Simulation time: 0 hr 3 min 32 sec) 

Warmup complete CPU 0 instructions: 50000002 cycles: 12500387 (Simulation time: 0 hr 3 min 32 sec) 

Heartbeat CPU 0 instructions: 60000003 cycles: 24646643 heartbeat IPC: 0.823299 cumulative IPC: 0.8233 (Simulation time: 0 hr 4 min 36 sec) 
Heartbeat CPU 0 instructions: 70000001 cycles: 37410719 heartbeat IPC: 0.783449 cumulative IPC: 0.80288 (Simulation time: 0 hr 5 min 47 sec) 
Heartbeat CPU 0 instructions: 80000004 cycles: 49561007 heartbeat IPC: 0.823027 cumulative IPC: 0.809485 (Simulation time: 0 hr 6 min 58 sec) 
Heartbeat CPU 0 instructions: 90000000 cycles: 62766364 heartbeat IPC: 0.757269 cumulative IPC: 0.795767 (Simulation time: 0 hr 8 min 10 sec) 
Heartbeat CPU 0 instructions: 100000003 cycles: 76153959 heartbeat IPC: 0.746961 cumulative IPC: 0.785502 (Simulation time: 0 hr 9 min 23 sec) 
*** Reached end of trace: /gpfs/projects/bsc18/MN4/bsc18/romol/ChampSim/traces/qualcomm_srv/srv499_ap.champsimtrace.xz
Heartbeat CPU 0 instructions: 110000000 cycles: 88279905 heartbeat IPC: 0.824678 cumulative IPC: 0.791771 (Simulation time: 0 hr 10 min 34 sec) 
Heartbeat CPU 0 instructions: 120000003 cycles: 100875318 heartbeat IPC: 0.793941 cumulative IPC: 0.79208 (Simulation time: 0 hr 11 min 45 sec) 
Heartbeat CPU 0 instructions: 130000002 cycles: 113834095 heartbeat IPC: 0.771678 cumulative IPC: 0.789471 (Simulation time: 0 hr 12 min 51 sec) 
Heartbeat CPU 0 instructions: 140000001 cycles: 126384233 heartbeat IPC: 0.796804 cumulative IPC: 0.790279 (Simulation time: 0 hr 14 min 0 sec) 
Heartbeat CPU 0 instructions: 150000001 cycles: 138603902 heartbeat IPC: 0.818353 cumulative IPC: 0.793 (Simulation time: 0 hr 15 min 9 sec) 
Simulation finished CPU 0 instructions: 100000004 cycles: 126103517 cumulative IPC: 0.793 (Simulation time: 0 hr 15 min 9 sec) 

Simulation complete CPU 0 instructions: 100000004 cycles: 126103517 (Simulation time: 0 hr 15 min 9 sec) 


ChampSim completed all CPUs

Saving instructions large page distribution to /home/bsc/bsc018186/scratch/itp_asplos25_AE/dump/srv499_ap.pdst...
Saving data large page distribution to /home/bsc/bsc018186/scratch/itp_asplos25_AE/dump/srv499_ap.pdst...
=== Simulation ===
CPU 0 runs /gpfs/projects/bsc18/MN4/bsc18/romol/ChampSim/traces/qualcomm_srv/srv499_ap.champsimtrace.xz

Region of Interest Statistics

CPU 0 cumulative IPC: 0.793 instructions: 100000004 cycles: 126103517
CPU 0 Branch Prediction Accuracy: 83.5909% MPKI: 29.3426 Average ROB Occupancy at Mispredict: 12.6788
Branch type MPKI
BRANCH_DIRECT_JUMP: 0.99599
BRANCH_INDIRECT: 15.184
BRANCH_CONDITIONAL: 9.55715
BRANCH_DIRECT_CALL: 1.80037
BRANCH_INDIRECT_CALL: 0.50025
BRANCH_RETURN: 1.30486

Instructions large pages: 0
Instructions small pages: 1039
Large page distribution for instructions: 0%

Data large pages: 0
Data small pages: 10233
Large page distribution for data: 0%

cpu0_L1I TOTAL       ACCESS:   34929008  HIT:   26922459  MISS:    8006549  iACCESS:   34929008  iHIT:   26922459  iMISS:    8006549  dACCESS:          0  dHIT:          0  dMISS:          0  itACCESS:          0  itHIT:          0  itMISS:          0  dtACCESS:          0  dtHIT:          0  dtMISS:          0
cpu0_L1I LOAD         ACCESS:   10271940  HIT:    8016235  MISS:    2255705  iACCESS:   10271940  iHIT:    8016235  iMISS:    2255705  dACCESS:          0  dHIT:          0  dMISS:          0  itACCESS:          0  itHIT:          0  itMISS:          0  dtACCESS:          0  dtHIT:          0  dtMISS:          0
cpu0_L1I RFO          ACCESS:          0  HIT:          0  MISS:          0  iACCESS:          0  iHIT:          0  iMISS:          0  dACCESS:          0  dHIT:          0  dMISS:          0  itACCESS:          0  itHIT:          0  itMISS:          0  dtACCESS:          0  dtHIT:          0  dtMISS:          0
cpu0_L1I PREFETCH     ACCESS:   24657068  HIT:   18906224  MISS:    5750844  iACCESS:   24657068  iHIT:   18906224  iMISS:    5750844  dACCESS:          0  dHIT:          0  dMISS:          0  itACCESS:          0  itHIT:          0  itMISS:          0  dtACCESS:          0  dtHIT:          0  dtMISS:          0
cpu0_L1I WRITE        ACCESS:          0  HIT:          0  MISS:          0  iACCESS:          0  iHIT:          0  iMISS:          0  dACCESS:          0  dHIT:          0  dMISS:          0  itACCESS:          0  itHIT:          0  itMISS:          0  dtACCESS:          0  dtHIT:          0  dtMISS:          0
cpu0_L1I TRANSLATION  ACCESS:          0  HIT:          0  MISS:          0  iACCESS:          0  iHIT:          0  iMISS:          0  dACCESS:          0  dHIT:          0  dMISS:          0  itACCESS:          0  itHIT:          0  itMISS:          0  dtACCESS:          0  dtHIT:          0  dtMISS:          0
cpu0_L1I PREFETCH  REQUESTED:   27155455  ISSUED:   27155226  CROSSED:          0  USEFUL:    1898388  USELESS:     626253
cpu0_L1I AVERAGE iMISS LATENCY: 10.7024 cycles
cpu0_L1I AVERAGE dMISS LATENCY: 0 cycles
cpu0_L1I AVERAGE itMISS LATENCY: 0 cycles
cpu0_L1I AVERAGE dtMISS LATENCY: 0 cycles
cpu0_L1I PAGE CROSSINGS (TLB HIT):         0 
cpu0_L1I PAGE CROSSINGS (TLB MISS):         0 
cpu0_L1I AVERAGE MISS LATENCY: 10.7024 cycles
cpu0_ITLB TOTAL       ACCESS:   29047837  HIT:   27073863  MISS:    1973974  iACCESS:   29047837  iHIT:   27073863  iMISS:    1973974  dACCESS:          0  dHIT:          0  dMISS:          0  itACCESS:          0  itHIT:          0  itMISS:          0  dtACCESS:          0  dtHIT:          0  dtMISS:          0
cpu0_ITLB LOAD         ACCESS:   29047837  HIT:   27073863  MISS:    1973974  iACCESS:   29047837  iHIT:   27073863  iMISS:    1973974  dACCESS:          0  dHIT:          0  dMISS:          0  itACCESS:          0  itHIT:          0  itMISS:          0  dtACCESS:          0  dtHIT:          0  dtMISS:          0
cpu0_ITLB RFO          ACCESS:          0  HIT:          0  MISS:          0  iACCESS:          0  iHIT:          0  iMISS:          0  dACCESS:          0  dHIT:          0  dMISS:          0  itACCESS:          0  itHIT:          0  itMISS:          0  dtACCESS:          0  dtHIT:          0  dtMISS:          0
cpu0_ITLB PREFETCH     ACCESS:          0  HIT:          0  MISS:          0  iACCESS:          0  iHIT:          0  iMISS:          0  dACCESS:          0  dHIT:          0  dMISS:          0  itACCESS:          0  itHIT:          0  itMISS:          0  dtACCESS:          0  dtHIT:          0  dtMISS:          0
cpu0_ITLB WRITE        ACCESS:          0  HIT:          0  MISS:          0  iACCESS:          0  iHIT:          0  iMISS:          0  dACCESS:          0  dHIT:          0  dMISS:          0  itACCESS:          0  itHIT:          0  itMISS:          0  dtACCESS:          0  dtHIT:          0  dtMISS:          0
cpu0_ITLB TRANSLATION  ACCESS:          0  HIT:          0  MISS:          0  iACCESS:          0  iHIT:          0  iMISS:          0  dACCESS:          0  dHIT:          0  dMISS:          0  itACCESS:          0  itHIT:          0  itMISS:          0  dtACCESS:          0  dtHIT:          0  dtMISS:          0
cpu0_ITLB PREFETCH  REQUESTED:          0  ISSUED:          0  CROSSED:          0  USEFUL:     320901  USELESS:      67006
cpu0_ITLB AVERAGE iMISS LATENCY: 1.8976 cycles
cpu0_ITLB AVERAGE dMISS LATENCY: 0 cycles
cpu0_ITLB AVERAGE itMISS LATENCY: 0 cycles
cpu0_ITLB AVERAGE dtMISS LATENCY: 0 cycles
cpu0_ITLB PAGE CROSSINGS (TLB HIT):         0 
cpu0_ITLB PAGE CROSSINGS (TLB MISS):         0 
cpu0_ITLB AVERAGE MISS LATENCY: 1.8976 cycles
cpu0_DTLB TOTAL       ACCESS:   27672748  HIT:   25646585  MISS:    2026163  iACCESS:          0  iHIT:          0  iMISS:          0  dACCESS:   27672748  dHIT:   25646585  dMISS:    2026163  itACCESS:          0  itHIT:          0  itMISS:          0  dtACCESS:          0  dtHIT:          0  dtMISS:          0
cpu0_DTLB LOAD         ACCESS:   27672748  HIT:   25646585  MISS:    2026163  iACCESS:          0  iHIT:          0  iMISS:          0  dACCESS:   27672748  dHIT:   25646585  dMISS:    2026163  itACCESS:          0  itHIT:          0  itMISS:          0  dtACCESS:          0  dtHIT:          0  dtMISS:          0
cpu0_DTLB RFO          ACCESS:          0  HIT:          0  MISS:          0  iACCESS:          0  iHIT:          0  iMISS:          0  dACCESS:          0  dHIT:          0  dMISS:          0  itACCESS:          0  itHIT:          0  itMISS:          0  dtACCESS:          0  dtHIT:          0  dtMISS:          0
cpu0_DTLB PREFETCH     ACCESS:          0  HIT:          0  MISS:          0  iACCESS:          0  iHIT:          0  iMISS:          0  dACCESS:          0  dHIT:          0  dMISS:          0  itACCESS:          0  itHIT:          0  itMISS:          0  dtACCESS:          0  dtHIT:          0  dtMISS:          0
cpu0_DTLB WRITE        ACCESS:          0  HIT:          0  MISS:          0  iACCESS:          0  iHIT:          0  iMISS:          0  dACCESS:          0  dHIT:          0  dMISS:          0  itACCESS:          0  itHIT:          0  itMISS:          0  dtACCESS:          0  dtHIT:          0  dtMISS:          0
cpu0_DTLB TRANSLATION  ACCESS:          0  HIT:          0  MISS:          0  iACCESS:          0  iHIT:          0  iMISS:          0  dACCESS:          0  dHIT:          0  dMISS:          0  itACCESS:          0  itHIT:          0  itMISS:          0  dtACCESS:          0  dtHIT:          0  dtMISS:          0
cpu0_DTLB PREFETCH  REQUESTED:          0  ISSUED:          0  CROSSED:          0  USEFUL:          0  USELESS:          0
cpu0_DTLB AVERAGE iMISS LATENCY: 0 cycles
cpu0_DTLB AVERAGE dMISS LATENCY: 10.6593 cycles
cpu0_DTLB AVERAGE itMISS LATENCY: 0 cycles
cpu0_DTLB AVERAGE dtMISS LATENCY: 0 cycles
cpu0_DTLB PAGE CROSSINGS (TLB HIT):         0 
cpu0_DTLB PAGE CROSSINGS (TLB MISS):         0 
cpu0_DTLB AVERAGE MISS LATENCY: 10.6593 cycles
cpu0_STLB TOTAL       ACCESS:    1628104  HIT:    1485923  MISS:     142181  iACCESS:     387921  iHIT:     381116  iMISS:       6805  dACCESS:    1240183  dHIT:    1104807  dMISS:     135376  itACCESS:          0  itHIT:          0  itMISS:          0  dtACCESS:          0  dtHIT:          0  dtMISS:          0
cpu0_STLB LOAD         ACCESS:    1628104  HIT:    1485923  MISS:     142181  iACCESS:     387921  iHIT:     381116  iMISS:       6805  dACCESS:    1240183  dHIT:    1104807  dMISS:     135376  itACCESS:          0  itHIT:          0  itMISS:          0  dtACCESS:          0  dtHIT:          0  dtMISS:          0
cpu0_STLB RFO          ACCESS:          0  HIT:          0  MISS:          0  iACCESS:          0  iHIT:          0  iMISS:          0  dACCESS:          0  dHIT:          0  dMISS:          0  itACCESS:          0  itHIT:          0  itMISS:          0  dtACCESS:          0  dtHIT:          0  dtMISS:          0
cpu0_STLB PREFETCH     ACCESS:          0  HIT:          0  MISS:          0  iACCESS:          0  iHIT:          0  iMISS:          0  dACCESS:          0  dHIT:          0  dMISS:          0  itACCESS:          0  itHIT:          0  itMISS:          0  dtACCESS:          0  dtHIT:          0  dtMISS:          0
cpu0_STLB WRITE        ACCESS:          0  HIT:          0  MISS:          0  iACCESS:          0  iHIT:          0  iMISS:          0  dACCESS:          0  dHIT:          0  dMISS:          0  itACCESS:          0  itHIT:          0  itMISS:          0  dtACCESS:          0  dtHIT:          0  dtMISS:          0
cpu0_STLB TRANSLATION  ACCESS:          0  HIT:          0  MISS:          0  iACCESS:          0  iHIT:          0  iMISS:          0  dACCESS:          0  dHIT:          0  dMISS:          0  itACCESS:          0  itHIT:          0  itMISS:          0  dtACCESS:          0  dtHIT:          0  dtMISS:          0
cpu0_STLB PREFETCH  REQUESTED:          0  ISSUED:          0  CROSSED:          0  USEFUL:          0  USELESS:          0
cpu0_STLB AVERAGE iMISS LATENCY: 5.18504 cycles
cpu0_STLB AVERAGE dMISS LATENCY: 82.2428 cycles
cpu0_STLB AVERAGE itMISS LATENCY: 0 cycles
cpu0_STLB AVERAGE dtMISS LATENCY: 0 cycles
cpu0_STLB PAGE CROSSINGS (TLB HIT):         0 
cpu0_STLB PAGE CROSSINGS (TLB MISS):         0 
cpu0_STLB AVERAGE MISS LATENCY: 87.4278 cycles
cpu0_L1D TOTAL       ACCESS:   41346871  HIT:   37897846  MISS:    3449025  iACCESS:          0  iHIT:          0  iMISS:          0  dACCESS:   41135879  dHIT:   37883774  dMISS:    3252105  itACCESS:       8615  itHIT:        772  itMISS:       7843  dtACCESS:     202377  dtHIT:      13300  dtMISS:     189077
cpu0_L1D LOAD         ACCESS:   18865446  HIT:   17378164  MISS:    1487282  iACCESS:          0  iHIT:          0  iMISS:          0  dACCESS:   18865446  dHIT:   17378164  dMISS:    1487282  itACCESS:          0  itHIT:          0  itMISS:          0  dtACCESS:          0  dtHIT:          0  dtMISS:          0
cpu0_L1D RFO          ACCESS:          0  HIT:          0  MISS:          0  iACCESS:          0  iHIT:          0  iMISS:          0  dACCESS:          0  dHIT:          0  dMISS:          0  itACCESS:          0  itHIT:          0  itMISS:          0  dtACCESS:          0  dtHIT:          0  dtMISS:          0
cpu0_L1D PREFETCH     ACCESS:   12077739  HIT:   10754052  MISS:    1323687  iACCESS:          0  iHIT:          0  iMISS:          0  dACCESS:   12077739  dHIT:   10754052  dMISS:    1323687  itACCESS:          0  itHIT:          0  itMISS:          0  dtACCESS:          0  dtHIT:          0  dtMISS:          0
cpu0_L1D WRITE        ACCESS:   10192694  HIT:    9751558  MISS:     441136  iACCESS:          0  iHIT:          0  iMISS:          0  dACCESS:   10192694  dHIT:    9751558  dMISS:     441136  itACCESS:          0  itHIT:          0  itMISS:          0  dtACCESS:          0  dtHIT:          0  dtMISS:          0
cpu0_L1D TRANSLATION  ACCESS:     210992  HIT:      14072  MISS:     196920  iACCESS:          0  iHIT:          0  iMISS:          0  dACCESS:          0  dHIT:          0  dMISS:          0  itACCESS:       8615  itHIT:        772  itMISS:       7843  dtACCESS:     202377  dtHIT:      13300  dtMISS:     189077
cpu0_L1D PREFETCH  REQUESTED:   18865446  ISSUED:   16898671  CROSSED:          0  USEFUL:     305265  USELESS:     700417
cpu0_L1D AVERAGE iMISS LATENCY: 0 cycles
cpu0_L1D AVERAGE dMISS LATENCY: 28.6781 cycles
cpu0_L1D AVERAGE itMISS LATENCY: 0.191833 cycles
cpu0_L1D AVERAGE dtMISS LATENCY: 2.58502 cycles
cpu0_L1D PAGE CROSSINGS (TLB HIT):         0 
cpu0_L1D PAGE CROSSINGS (TLB MISS):         0 
cpu0_L1D AVERAGE MISS LATENCY: 31.455 cycles
cpu0_L2C TOTAL       ACCESS:    6919289  HIT:    2577856  MISS:    4341433  iACCESS:    3279445  iHIT:    1427725  iMISS:    1851720  dACCESS:    3450787  dHIT:    1016786  dMISS:    2434001  itACCESS:       7797  itHIT:       2897  itMISS:       4900  dtACCESS:     181260  dtHIT:     130448  dtMISS:      50812
cpu0_L2C LOAD         ACCESS:    1720750  HIT:     562681  MISS:    1158069  iACCESS:     788599  iHIT:     308971  iMISS:     479628  dACCESS:     932151  dHIT:     253710  dMISS:     678441  itACCESS:          0  itHIT:          0  itMISS:          0  dtACCESS:          0  dtHIT:          0  dtMISS:          0
cpu0_L2C RFO          ACCESS:     157506  HIT:      32611  MISS:     124895  iACCESS:          0  iHIT:          0  iMISS:          0  dACCESS:     157506  dHIT:      32611  dMISS:     124895  itACCESS:          0  itHIT:          0  itMISS:          0  dtACCESS:          0  dtHIT:          0  dtMISS:          0
cpu0_L2C PREFETCH     ACCESS:    4566913  HIT:    1723627  MISS:    2843286  iACCESS:    2490846  iHIT:    1118754  iMISS:    1372092  dACCESS:    2076067  dHIT:     604873  dMISS:    1471194  itACCESS:          0  itHIT:          0  itMISS:          0  dtACCESS:          0  dtHIT:          0  dtMISS:          0
cpu0_L2C WRITE        ACCESS:     285063  HIT:     125592  MISS:     159471  iACCESS:          0  iHIT:          0  iMISS:          0  dACCESS:     285063  dHIT:     125592  dMISS:     159471  itACCESS:          0  itHIT:          0  itMISS:          0  dtACCESS:          0  dtHIT:          0  dtMISS:          0
cpu0_L2C TRANSLATION  ACCESS:     189057  HIT:     133345  MISS:      55712  iACCESS:          0  iHIT:          0  iMISS:          0  dACCESS:          0  dHIT:          0  dMISS:          0  itACCESS:       7797  itHIT:       2897  itMISS:       4900  dtACCESS:     181260  dtHIT:     130448  dtMISS:      50812
cpu0_L2C PREFETCH  REQUESTED:    1319939  ISSUED:    1319939  CROSSED:          0  USEFUL:     340372  USELESS:     315508
cpu0_L2C AVERAGE iMISS LATENCY: 12.8265 cycles
cpu0_L2C AVERAGE dMISS LATENCY: 24.4489 cycles
cpu0_L2C AVERAGE itMISS LATENCY: 0.135078 cycles
cpu0_L2C AVERAGE dtMISS LATENCY: 1.66392 cycles
cpu0_L2C PAGE CROSSINGS (TLB HIT):         0 
cpu0_L2C PAGE CROSSINGS (TLB MISS):         0 
cpu0_L2C AVERAGE MISS LATENCY: 39.0743 cycles
LLC TOTAL       ACCESS:    4301393  HIT:    3731205  MISS:     570188  iACCESS:    1810823  iHIT:    1673634  iMISS:     137189  dACCESS:    2434858  dHIT:    2040761  dMISS:     394097  itACCESS:       4900  itHIT:       2142  itMISS:       2758  dtACCESS:      50812  dtHIT:      14668  dtMISS:      36144
LLC LOAD         ACCESS:    1156300  HIT:    1025805  MISS:     130495  iACCESS:     478425  iHIT:     448217  iMISS:      30208  dACCESS:     677875  dHIT:     577588  dMISS:     100287  itACCESS:          0  itHIT:          0  itMISS:          0  dtACCESS:          0  dtHIT:          0  dtMISS:          0
LLC RFO          ACCESS:     124893  HIT:      91250  MISS:      33643  iACCESS:          0  iHIT:          0  iMISS:          0  dACCESS:     124893  dHIT:      91250  dMISS:      33643  itACCESS:          0  itHIT:          0  itMISS:          0  dtACCESS:          0  dtHIT:          0  dtMISS:          0
LLC PREFETCH     ACCESS:    2763101  HIT:    2397755  MISS:     365346  iACCESS:    1332398  iHIT:    1225417  iMISS:     106981  dACCESS:    1430703  dHIT:    1172338  dMISS:     258365  itACCESS:          0  itHIT:          0  itMISS:          0  dtACCESS:          0  dtHIT:          0  dtMISS:          0
LLC WRITE        ACCESS:     201387  HIT:     199585  MISS:       1802  iACCESS:          0  iHIT:          0  iMISS:          0  dACCESS:     201387  dHIT:     199585  dMISS:       1802  itACCESS:          0  itHIT:          0  itMISS:          0  dtACCESS:          0  dtHIT:          0  dtMISS:          0
LLC TRANSLATION  ACCESS:      55712  HIT:      16810  MISS:      38902  iACCESS:          0  iHIT:          0  iMISS:          0  dACCESS:          0  dHIT:          0  dMISS:          0  itACCESS:       4900  itHIT:       2142  itMISS:       2758  dtACCESS:      50812  dtHIT:      14668  dtMISS:      36144
LLC PREFETCH  REQUESTED:          0  ISSUED:          0  CROSSED:          0  USEFUL:          0  USELESS:          0
LLC AVERAGE iMISS LATENCY: 36.4989 cycles
LLC AVERAGE dMISS LATENCY: 110.484 cycles
LLC AVERAGE itMISS LATENCY: 0.860731 cycles
LLC AVERAGE dtMISS LATENCY: 10.9166 cycles
LLC PAGE CROSSINGS (TLB HIT):         0 
LLC PAGE CROSSINGS (TLB MISS):         0 
LLC AVERAGE MISS LATENCY: 158.761 cycles

PageTableWalker TOTAL       ACCESS:      70934  
PageTableWalker AVERAGE LATENCY: 4.91402 cycles
PageTableWalker TOTAL LATENCY: 348571 cycles

DRAM Statistics
Channel 0
 RQ ROW_BUFFER_HIT:     144567
  ROW_BUFFER_MISS:     423769
 AVG DBUS CONGESTED CYCLE:    3.63523
 WQ ROW_BUFFER_HIT:      15219
  ROW_BUFFER_MISS:      28364  FULL:          0

