last_page:0x200000000000000
VMEM_RES_CAP:0x100000
PAGE_SIZE:4096
LOG2_PAGE_SIZE:12
LOG2_PAGE_TABLE_SIZE:9
page_table_levels:5
WARNING: physical memory size is smaller than virtual memory size
FDiP enabled with aggresivity 16

*** ChampSim Multicore Out-of-Order Simulator ***

Warmup Instructions: 50000000
Simulation Instructions: 100000000
Number of CPUs: 1
Small page size: 4096
Large page size: 2097152

CPU 0 Bimodal branch predictor
Basic BTB sets: 1024 ways: 8 indirect buffer size: 4096 RAS size: 64
Instruction page size distrubution: 0
Loading instruction page size distribution from /home/bsc/bsc018186/scratch/itp_asplos25_AE/dump/srv48_ap.pdst
Data page size distrubution: 0
Loading data page size distribution from /home/bsc/bsc018186/scratch/itp_asplos25_AE/dump/srv48_ap.pdst
cpu0_L2C IP-based stride prefetcher
cpu0_L2C is using xPTP/LRU
	TLB_LOWER_STRESS_THRESHOLD:1
	TLB_UPPER_STRESS_THRESHOLD:9
	MIN_EVICTION_POSITION:4
cpu0_L1D next line prefetcher
cpu0_STLB using iTP with max lru@8
cpu0_STLB using iTP with instr@0 and data@2
Init sat counter with 3 bits (max:50).
cpu0_L1I next line prefetcher
Off-chip DRAM Size: 4 GiB Channels: 1 Width: 64-bit Data Rate: 3200 MT/s
Heartbeat CPU 0 instructions: 10000001 cycles: 2500136 heartbeat IPC: 3.99979 cumulative IPC: 3.99979 (Simulation time: 0 hr 0 min 39 sec) 
Heartbeat CPU 0 instructions: 20000001 cycles: 5000136 heartbeat IPC: 4 cumulative IPC: 3.9999 (Simulation time: 0 hr 1 min 24 sec) 
Heartbeat CPU 0 instructions: 30000003 cycles: 7500161 heartbeat IPC: 3.99997 cumulative IPC: 3.99992 (Simulation time: 0 hr 2 min 9 sec) 
Heartbeat CPU 0 instructions: 40000001 cycles: 10000216 heartbeat IPC: 3.99992 cumulative IPC: 3.99992 (Simulation time: 0 hr 2 min 54 sec) 
Heartbeat CPU 0 instructions: 50000000 cycles: 12500898 heartbeat IPC: 3.99891 cumulative IPC: 3.99972 (Simulation time: 0 hr 3 min 40 sec) 
Warmup finished CPU 0 instructions: 50000000 cycles: 12500899 cumulative IPC: 3.99972 (Simulation time: 0 hr 3 min 40 sec) 

Warmup complete CPU 0 instructions: 50000000 cycles: 12500899 (Simulation time: 0 hr 3 min 40 sec) 

Heartbeat CPU 0 instructions: 60000000 cycles: 30052296 heartbeat IPC: 0.569756 cumulative IPC: 0.569756 (Simulation time: 0 hr 4 min 52 sec) 
Heartbeat CPU 0 instructions: 70000002 cycles: 47135996 heartbeat IPC: 0.585354 cumulative IPC: 0.577449 (Simulation time: 0 hr 6 min 8 sec) 
Heartbeat CPU 0 instructions: 80000003 cycles: 64168161 heartbeat IPC: 0.587125 cumulative IPC: 0.580639 (Simulation time: 0 hr 7 min 23 sec) 
Heartbeat CPU 0 instructions: 90000004 cycles: 81315017 heartbeat IPC: 0.583198 cumulative IPC: 0.581277 (Simulation time: 0 hr 8 min 37 sec) 
Heartbeat CPU 0 instructions: 100000000 cycles: 99041753 heartbeat IPC: 0.56412 cumulative IPC: 0.577762 (Simulation time: 0 hr 9 min 52 sec) 
*** Reached end of trace: /gpfs/projects/bsc18/MN4/bsc18/romol/ChampSim/traces/qualcomm_srv/srv48_ap.champsimtrace.xz
Heartbeat CPU 0 instructions: 110000000 cycles: 116615942 heartbeat IPC: 0.569017 cumulative IPC: 0.576286 (Simulation time: 0 hr 11 min 9 sec) 
Heartbeat CPU 0 instructions: 120000000 cycles: 133979211 heartbeat IPC: 0.575929 cumulative IPC: 0.576235 (Simulation time: 0 hr 12 min 25 sec) 
Heartbeat CPU 0 instructions: 130000004 cycles: 150525738 heartbeat IPC: 0.604357 cumulative IPC: 0.579606 (Simulation time: 0 hr 13 min 37 sec) 
Heartbeat CPU 0 instructions: 140000000 cycles: 167569909 heartbeat IPC: 0.586711 cumulative IPC: 0.580387 (Simulation time: 0 hr 14 min 53 sec) 
Heartbeat CPU 0 instructions: 150000003 cycles: 185499297 heartbeat IPC: 0.557744 cumulative IPC: 0.578041 (Simulation time: 0 hr 16 min 8 sec) 
Simulation finished CPU 0 instructions: 100000003 cycles: 172998399 cumulative IPC: 0.578041 (Simulation time: 0 hr 16 min 8 sec) 

Simulation complete CPU 0 instructions: 100000003 cycles: 172998399 (Simulation time: 0 hr 16 min 8 sec) 


ChampSim completed all CPUs

Saving instructions large page distribution to /home/bsc/bsc018186/scratch/itp_asplos25_AE/dump/srv48_ap.pdst...
Saving data large page distribution to /home/bsc/bsc018186/scratch/itp_asplos25_AE/dump/srv48_ap.pdst...
=== Simulation ===
CPU 0 runs /gpfs/projects/bsc18/MN4/bsc18/romol/ChampSim/traces/qualcomm_srv/srv48_ap.champsimtrace.xz

Region of Interest Statistics

CPU 0 cumulative IPC: 0.578041 instructions: 100000003 cycles: 172998399
CPU 0 Branch Prediction Accuracy: 80.0806% MPKI: 35.9868 Average ROB Occupancy at Mispredict: 10.478
Branch type MPKI
BRANCH_DIRECT_JUMP: 1.34386
BRANCH_INDIRECT: 18.0494
BRANCH_CONDITIONAL: 11.6578
BRANCH_DIRECT_CALL: 2.53507
BRANCH_INDIRECT_CALL: 0.67018
BRANCH_RETURN: 1.73049

Instructions large pages: 0
Instructions small pages: 5912
Large page distribution for instructions: 0%

Data large pages: 0
Data small pages: 4817
Large page distribution for data: 0%

cpu0_L1I TOTAL       ACCESS:   36156530  HIT:   27937272  MISS:    8219258  iACCESS:   36156530  iHIT:   27937272  iMISS:    8219258  dACCESS:          0  dHIT:          0  dMISS:          0  itACCESS:          0  itHIT:          0  itMISS:          0  dtACCESS:          0  dtHIT:          0  dtMISS:          0
cpu0_L1I LOAD         ACCESS:   10559786  HIT:    8303397  MISS:    2256389  iACCESS:   10559786  iHIT:    8303397  iMISS:    2256389  dACCESS:          0  dHIT:          0  dMISS:          0  itACCESS:          0  itHIT:          0  itMISS:          0  dtACCESS:          0  dtHIT:          0  dtMISS:          0
cpu0_L1I RFO          ACCESS:          0  HIT:          0  MISS:          0  iACCESS:          0  iHIT:          0  iMISS:          0  dACCESS:          0  dHIT:          0  dMISS:          0  itACCESS:          0  itHIT:          0  itMISS:          0  dtACCESS:          0  dtHIT:          0  dtMISS:          0
cpu0_L1I PREFETCH     ACCESS:   25596744  HIT:   19633875  MISS:    5962869  iACCESS:   25596744  iHIT:   19633875  iMISS:    5962869  dACCESS:          0  dHIT:          0  dMISS:          0  itACCESS:          0  itHIT:          0  itMISS:          0  dtACCESS:          0  dtHIT:          0  dtMISS:          0
cpu0_L1I WRITE        ACCESS:          0  HIT:          0  MISS:          0  iACCESS:          0  iHIT:          0  iMISS:          0  dACCESS:          0  dHIT:          0  dMISS:          0  itACCESS:          0  itHIT:          0  itMISS:          0  dtACCESS:          0  dtHIT:          0  dtMISS:          0
cpu0_L1I TRANSLATION  ACCESS:          0  HIT:          0  MISS:          0  iACCESS:          0  iHIT:          0  iMISS:          0  dACCESS:          0  dHIT:          0  dMISS:          0  itACCESS:          0  itHIT:          0  itMISS:          0  dtACCESS:          0  dtHIT:          0  dtMISS:          0
cpu0_L1I PREFETCH  REQUESTED:   28075931  ISSUED:   28075811  CROSSED:          0  USEFUL:    2029873  USELESS:     660409
cpu0_L1I AVERAGE iMISS LATENCY: 16.0665 cycles
cpu0_L1I AVERAGE dMISS LATENCY: 0 cycles
cpu0_L1I AVERAGE itMISS LATENCY: 0 cycles
cpu0_L1I AVERAGE dtMISS LATENCY: 0 cycles
cpu0_L1I PAGE CROSSINGS (TLB HIT):         0 
cpu0_L1I PAGE CROSSINGS (TLB MISS):         0 
cpu0_L1I AVERAGE MISS LATENCY: 16.0665 cycles
cpu0_ITLB TOTAL       ACCESS:   30339802  HIT:   28395175  MISS:    1944627  iACCESS:   30339802  iHIT:   28395175  iMISS:    1944627  dACCESS:          0  dHIT:          0  dMISS:          0  itACCESS:          0  itHIT:          0  itMISS:          0  dtACCESS:          0  dtHIT:          0  dtMISS:          0
cpu0_ITLB LOAD         ACCESS:   30339802  HIT:   28395175  MISS:    1944627  iACCESS:   30339802  iHIT:   28395175  iMISS:    1944627  dACCESS:          0  dHIT:          0  dMISS:          0  itACCESS:          0  itHIT:          0  itMISS:          0  dtACCESS:          0  dtHIT:          0  dtMISS:          0
cpu0_ITLB RFO          ACCESS:          0  HIT:          0  MISS:          0  iACCESS:          0  iHIT:          0  iMISS:          0  dACCESS:          0  dHIT:          0  dMISS:          0  itACCESS:          0  itHIT:          0  itMISS:          0  dtACCESS:          0  dtHIT:          0  dtMISS:          0
cpu0_ITLB PREFETCH     ACCESS:          0  HIT:          0  MISS:          0  iACCESS:          0  iHIT:          0  iMISS:          0  dACCESS:          0  dHIT:          0  dMISS:          0  itACCESS:          0  itHIT:          0  itMISS:          0  dtACCESS:          0  dtHIT:          0  dtMISS:          0
cpu0_ITLB WRITE        ACCESS:          0  HIT:          0  MISS:          0  iACCESS:          0  iHIT:          0  iMISS:          0  dACCESS:          0  dHIT:          0  dMISS:          0  itACCESS:          0  itHIT:          0  itMISS:          0  dtACCESS:          0  dtHIT:          0  dtMISS:          0
cpu0_ITLB TRANSLATION  ACCESS:          0  HIT:          0  MISS:          0  iACCESS:          0  iHIT:          0  iMISS:          0  dACCESS:          0  dHIT:          0  dMISS:          0  itACCESS:          0  itHIT:          0  itMISS:          0  dtACCESS:          0  dtHIT:          0  dtMISS:          0
cpu0_ITLB PREFETCH  REQUESTED:          0  ISSUED:          0  CROSSED:          0  USEFUL:     330957  USELESS:      66072
cpu0_ITLB AVERAGE iMISS LATENCY: 3.29778 cycles
cpu0_ITLB AVERAGE dMISS LATENCY: 0 cycles
cpu0_ITLB AVERAGE itMISS LATENCY: 0 cycles
cpu0_ITLB AVERAGE dtMISS LATENCY: 0 cycles
cpu0_ITLB PAGE CROSSINGS (TLB HIT):         0 
cpu0_ITLB PAGE CROSSINGS (TLB MISS):         0 
cpu0_ITLB AVERAGE MISS LATENCY: 3.29778 cycles
cpu0_DTLB TOTAL       ACCESS:   27970653  HIT:   26219124  MISS:    1751529  iACCESS:          0  iHIT:          0  iMISS:          0  dACCESS:   27970653  dHIT:   26219124  dMISS:    1751529  itACCESS:          0  itHIT:          0  itMISS:          0  dtACCESS:          0  dtHIT:          0  dtMISS:          0
cpu0_DTLB LOAD         ACCESS:   27970653  HIT:   26219124  MISS:    1751529  iACCESS:          0  iHIT:          0  iMISS:          0  dACCESS:   27970653  dHIT:   26219124  dMISS:    1751529  itACCESS:          0  itHIT:          0  itMISS:          0  dtACCESS:          0  dtHIT:          0  dtMISS:          0
cpu0_DTLB RFO          ACCESS:          0  HIT:          0  MISS:          0  iACCESS:          0  iHIT:          0  iMISS:          0  dACCESS:          0  dHIT:          0  dMISS:          0  itACCESS:          0  itHIT:          0  itMISS:          0  dtACCESS:          0  dtHIT:          0  dtMISS:          0
cpu0_DTLB PREFETCH     ACCESS:          0  HIT:          0  MISS:          0  iACCESS:          0  iHIT:          0  iMISS:          0  dACCESS:          0  dHIT:          0  dMISS:          0  itACCESS:          0  itHIT:          0  itMISS:          0  dtACCESS:          0  dtHIT:          0  dtMISS:          0
cpu0_DTLB WRITE        ACCESS:          0  HIT:          0  MISS:          0  iACCESS:          0  iHIT:          0  iMISS:          0  dACCESS:          0  dHIT:          0  dMISS:          0  itACCESS:          0  itHIT:          0  itMISS:          0  dtACCESS:          0  dtHIT:          0  dtMISS:          0
cpu0_DTLB TRANSLATION  ACCESS:          0  HIT:          0  MISS:          0  iACCESS:          0  iHIT:          0  iMISS:          0  dACCESS:          0  dHIT:          0  dMISS:          0  itACCESS:          0  itHIT:          0  itMISS:          0  dtACCESS:          0  dtHIT:          0  dtMISS:          0
cpu0_DTLB PREFETCH  REQUESTED:          0  ISSUED:          0  CROSSED:          0  USEFUL:          0  USELESS:          0
cpu0_DTLB AVERAGE iMISS LATENCY: 0 cycles
cpu0_DTLB AVERAGE dMISS LATENCY: 14.5498 cycles
cpu0_DTLB AVERAGE itMISS LATENCY: 0 cycles
cpu0_DTLB AVERAGE dtMISS LATENCY: 0 cycles
cpu0_DTLB PAGE CROSSINGS (TLB HIT):         0 
cpu0_DTLB PAGE CROSSINGS (TLB MISS):         0 
cpu0_DTLB AVERAGE MISS LATENCY: 14.5498 cycles
cpu0_STLB TOTAL       ACCESS:    1500932  HIT:    1290716  MISS:     210216  iACCESS:     397043  iHIT:     368430  iMISS:      28613  dACCESS:    1103889  dHIT:     922286  dMISS:     181603  itACCESS:          0  itHIT:          0  itMISS:          0  dtACCESS:          0  dtHIT:          0  dtMISS:          0
cpu0_STLB LOAD         ACCESS:    1500932  HIT:    1290716  MISS:     210216  iACCESS:     397043  iHIT:     368430  iMISS:      28613  dACCESS:    1103889  dHIT:     922286  dMISS:     181603  itACCESS:          0  itHIT:          0  itMISS:          0  dtACCESS:          0  dtHIT:          0  dtMISS:          0
cpu0_STLB RFO          ACCESS:          0  HIT:          0  MISS:          0  iACCESS:          0  iHIT:          0  iMISS:          0  dACCESS:          0  dHIT:          0  dMISS:          0  itACCESS:          0  itHIT:          0  itMISS:          0  dtACCESS:          0  dtHIT:          0  dtMISS:          0
cpu0_STLB PREFETCH     ACCESS:          0  HIT:          0  MISS:          0  iACCESS:          0  iHIT:          0  iMISS:          0  dACCESS:          0  dHIT:          0  dMISS:          0  itACCESS:          0  itHIT:          0  itMISS:          0  dtACCESS:          0  dtHIT:          0  dtMISS:          0
cpu0_STLB WRITE        ACCESS:          0  HIT:          0  MISS:          0  iACCESS:          0  iHIT:          0  iMISS:          0  dACCESS:          0  dHIT:          0  dMISS:          0  itACCESS:          0  itHIT:          0  itMISS:          0  dtACCESS:          0  dtHIT:          0  dtMISS:          0
cpu0_STLB TRANSLATION  ACCESS:          0  HIT:          0  MISS:          0  iACCESS:          0  iHIT:          0  iMISS:          0  dACCESS:          0  dHIT:          0  dMISS:          0  itACCESS:          0  itHIT:          0  itMISS:          0  dtACCESS:          0  dtHIT:          0  dtMISS:          0
cpu0_STLB PREFETCH  REQUESTED:          0  ISSUED:          0  CROSSED:          0  USEFUL:          0  USELESS:          0
cpu0_STLB AVERAGE iMISS LATENCY: 15.7661 cycles
cpu0_STLB AVERAGE dMISS LATENCY: 79.0247 cycles
cpu0_STLB AVERAGE itMISS LATENCY: 0 cycles
cpu0_STLB AVERAGE dtMISS LATENCY: 0 cycles
cpu0_STLB PAGE CROSSINGS (TLB HIT):         0 
cpu0_STLB PAGE CROSSINGS (TLB MISS):         0 
cpu0_STLB AVERAGE MISS LATENCY: 94.7908 cycles
cpu0_L1D TOTAL       ACCESS:   42653025  HIT:   38513951  MISS:    4139074  iACCESS:          0  iHIT:          0  iMISS:          0  dACCESS:   42370269  dHIT:   38496497  dMISS:    3873772  itACCESS:      32330  itHIT:       2801  itMISS:      29529  dtACCESS:     250426  dtHIT:      14653  dtMISS:     235773
cpu0_L1D LOAD         ACCESS:   19416025  HIT:   17657102  MISS:    1758923  iACCESS:          0  iHIT:          0  iMISS:          0  dACCESS:   19416025  dHIT:   17657102  dMISS:    1758923  itACCESS:          0  itHIT:          0  itMISS:          0  dtACCESS:          0  dtHIT:          0  dtMISS:          0
cpu0_L1D RFO          ACCESS:          0  HIT:          0  MISS:          0  iACCESS:          0  iHIT:          0  iMISS:          0  dACCESS:          0  dHIT:          0  dMISS:          0  itACCESS:          0  itHIT:          0  itMISS:          0  dtACCESS:          0  dtHIT:          0  dtMISS:          0
cpu0_L1D PREFETCH     ACCESS:   12799006  HIT:   11151574  MISS:    1647432  iACCESS:          0  iHIT:          0  iMISS:          0  dACCESS:   12799006  dHIT:   11151574  dMISS:    1647432  itACCESS:          0  itHIT:          0  itMISS:          0  dtACCESS:          0  dtHIT:          0  dtMISS:          0
cpu0_L1D WRITE        ACCESS:   10155238  HIT:    9687821  MISS:     467417  iACCESS:          0  iHIT:          0  iMISS:          0  dACCESS:   10155238  dHIT:    9687821  dMISS:     467417  itACCESS:          0  itHIT:          0  itMISS:          0  dtACCESS:          0  dtHIT:          0  dtMISS:          0
cpu0_L1D TRANSLATION  ACCESS:     282756  HIT:      17454  MISS:     265302  iACCESS:          0  iHIT:          0  iMISS:          0  dACCESS:          0  dHIT:          0  dMISS:          0  itACCESS:      32330  itHIT:       2801  itMISS:      29529  dtACCESS:     250426  dtHIT:      14653  dtMISS:     235773
cpu0_L1D PREFETCH  REQUESTED:   19416025  ISSUED:   17235598  CROSSED:          0  USEFUL:     312653  USELESS:     708124
cpu0_L1D AVERAGE iMISS LATENCY: 0 cycles
cpu0_L1D AVERAGE dMISS LATENCY: 35.0926 cycles
cpu0_L1D AVERAGE itMISS LATENCY: 0.732129 cycles
cpu0_L1D AVERAGE dtMISS LATENCY: 3.45625 cycles
cpu0_L1D PAGE CROSSINGS (TLB HIT):         0 
cpu0_L1D PAGE CROSSINGS (TLB MISS):         0 
cpu0_L1D AVERAGE MISS LATENCY: 39.2809 cycles
cpu0_L2C TOTAL       ACCESS:    7367052  HIT:    2482135  MISS:    4884917  iACCESS:    3428399  iHIT:    1375606  iMISS:    2052793  dACCESS:    3678077  dHIT:     944248  dMISS:    2733829  itACCESS:      29529  itHIT:      10128  itMISS:      19401  dtACCESS:     231047  dtHIT:     152153  dtMISS:      78894
cpu0_L2C LOAD         ACCESS:    1732666  HIT:     510187  MISS:    1222479  iACCESS:     776250  iHIT:     287361  iMISS:     488889  dACCESS:     956416  dHIT:     222826  dMISS:     733590  itACCESS:          0  itHIT:          0  itMISS:          0  dtACCESS:          0  dtHIT:          0  dtMISS:          0
cpu0_L2C RFO          ACCESS:     162340  HIT:      24763  MISS:     137577  iACCESS:          0  iHIT:          0  iMISS:          0  dACCESS:     162340  dHIT:      24763  dMISS:     137577  itACCESS:          0  itHIT:          0  itMISS:          0  dtACCESS:          0  dtHIT:          0  dtMISS:          0
cpu0_L2C PREFETCH     ACCESS:    4936075  HIT:    1673924  MISS:    3262151  iACCESS:    2652149  iHIT:    1088245  iMISS:    1563904  dACCESS:    2283926  dHIT:     585679  dMISS:    1698247  itACCESS:          0  itHIT:          0  itMISS:          0  dtACCESS:          0  dtHIT:          0  dtMISS:          0
cpu0_L2C WRITE        ACCESS:     275395  HIT:     110980  MISS:     164415  iACCESS:          0  iHIT:          0  iMISS:          0  dACCESS:     275395  dHIT:     110980  dMISS:     164415  itACCESS:          0  itHIT:          0  itMISS:          0  dtACCESS:          0  dtHIT:          0  dtMISS:          0
cpu0_L2C TRANSLATION  ACCESS:     260576  HIT:     162281  MISS:      98295  iACCESS:          0  iHIT:          0  iMISS:          0  dACCESS:          0  dHIT:          0  dMISS:          0  itACCESS:      29529  itHIT:      10128  itMISS:      19401  dtACCESS:     231047  dtHIT:     152153  dtMISS:      78894
cpu0_L2C PREFETCH  REQUESTED:    1535729  ISSUED:    1535579  CROSSED:          0  USEFUL:     395656  USELESS:     380993
cpu0_L2C AVERAGE iMISS LATENCY: 20.7509 cycles
cpu0_L2C AVERAGE dMISS LATENCY: 36.6239 cycles
cpu0_L2C AVERAGE itMISS LATENCY: 0.561792 cycles
cpu0_L2C AVERAGE dtMISS LATENCY: 2.48471 cycles
cpu0_L2C PAGE CROSSINGS (TLB HIT):         0 
cpu0_L2C PAGE CROSSINGS (TLB MISS):         0 
cpu0_L2C AVERAGE MISS LATENCY: 60.4212 cycles
LLC TOTAL       ACCESS:    4771210  HIT:    3474209  MISS:    1297001  iACCESS:    1984018  iHIT:    1556770  iMISS:     427248  dACCESS:    2688897  dHIT:    1891582  dMISS:     797315  itACCESS:      19401  itHIT:       5799  itMISS:      13602  dtACCESS:      78894  dtHIT:      20058  dtMISS:      58836
LLC LOAD         ACCESS:    1216646  HIT:     930016  MISS:     286630  iACCESS:     487648  iHIT:     400400  iMISS:      87248  dACCESS:     728998  dHIT:     529616  dMISS:     199382  itACCESS:          0  itHIT:          0  itMISS:          0  dtACCESS:          0  dtHIT:          0  dtMISS:          0
LLC RFO          ACCESS:     137575  HIT:      85973  MISS:      51602  iACCESS:          0  iHIT:          0  iMISS:          0  dACCESS:     137575  dHIT:      85973  dMISS:      51602  itACCESS:          0  itHIT:          0  itMISS:          0  dtACCESS:          0  dtHIT:          0  dtMISS:          0
LLC PREFETCH     ACCESS:    3107956  HIT:    2224358  MISS:     883598  iACCESS:    1496370  iHIT:    1156370  iMISS:     340000  dACCESS:    1611586  dHIT:    1067988  dMISS:     543598  itACCESS:          0  itHIT:          0  itMISS:          0  dtACCESS:          0  dtHIT:          0  dtMISS:          0
LLC WRITE        ACCESS:     210738  HIT:     208005  MISS:       2733  iACCESS:          0  iHIT:          0  iMISS:          0  dACCESS:     210738  dHIT:     208005  dMISS:       2733  itACCESS:          0  itHIT:          0  itMISS:          0  dtACCESS:          0  dtHIT:          0  dtMISS:          0
LLC TRANSLATION  ACCESS:      98295  HIT:      25857  MISS:      72438  iACCESS:          0  iHIT:          0  iMISS:          0  dACCESS:          0  dHIT:          0  dMISS:          0  itACCESS:      19401  itHIT:       5799  itMISS:      13602  dtACCESS:      78894  dtHIT:      20058  dtMISS:      58836
LLC PREFETCH  REQUESTED:          0  ISSUED:          0  CROSSED:          0  USEFUL:          0  USELESS:          0
LLC AVERAGE iMISS LATENCY: 48.5651 cycles
LLC AVERAGE dMISS LATENCY: 101.848 cycles
LLC AVERAGE itMISS LATENCY: 1.82201 cycles
LLC AVERAGE dtMISS LATENCY: 8.16001 cycles
LLC PAGE CROSSINGS (TLB HIT):         0 
LLC PAGE CROSSINGS (TLB MISS):         0 
LLC AVERAGE MISS LATENCY: 160.395 cycles

PageTableWalker TOTAL       ACCESS:      98985  
PageTableWalker AVERAGE LATENCY: 4.29148 cycles
PageTableWalker TOTAL LATENCY: 424792 cycles

DRAM Statistics
Channel 0
 RQ ROW_BUFFER_HIT:     357391
  ROW_BUFFER_MISS:     926463
 AVG DBUS CONGESTED CYCLE:    3.63806
 WQ ROW_BUFFER_HIT:      33313
  ROW_BUFFER_MISS:      33843  FULL:          0

