last_page:0x200000000000000
VMEM_RES_CAP:0x100000
PAGE_SIZE:4096
LOG2_PAGE_SIZE:12
LOG2_PAGE_TABLE_SIZE:9
page_table_levels:5
WARNING: physical memory size is smaller than virtual memory size
FDiP enabled with aggresivity 16

*** ChampSim Multicore Out-of-Order Simulator ***

Warmup Instructions: 50000000
Simulation Instructions: 100000000
Number of CPUs: 1
Small page size: 4096
Large page size: 2097152

CPU 0 Bimodal branch predictor
Basic BTB sets: 1024 ways: 8 indirect buffer size: 4096 RAS size: 64
Instruction page size distrubution: 0
Loading instruction page size distribution from /home/bsc/bsc018186/scratch/itp_asplos25_AE/dump/srv403_ap.pdst
Data page size distrubution: 0
Loading data page size distribution from /home/bsc/bsc018186/scratch/itp_asplos25_AE/dump/srv403_ap.pdst
cpu0_L2C IP-based stride prefetcher
cpu0_L2C is using xPTP/LRU
	TLB_LOWER_STRESS_THRESHOLD:1
	TLB_UPPER_STRESS_THRESHOLD:9
	MIN_EVICTION_POSITION:4
cpu0_L1D next line prefetcher
cpu0_STLB using iTP with max lru@8
cpu0_STLB using iTP with instr@0 and data@2
Init sat counter with 3 bits (max:50).
cpu0_L1I next line prefetcher
Off-chip DRAM Size: 4 GiB Channels: 1 Width: 64-bit Data Rate: 3200 MT/s
Heartbeat CPU 0 instructions: 10000002 cycles: 2500293 heartbeat IPC: 3.99954 cumulative IPC: 3.99954 (Simulation time: 0 hr 0 min 40 sec) 
Heartbeat CPU 0 instructions: 20000000 cycles: 5000328 heartbeat IPC: 3.99995 cumulative IPC: 3.99974 (Simulation time: 0 hr 1 min 22 sec) 
Heartbeat CPU 0 instructions: 30000000 cycles: 7500391 heartbeat IPC: 3.9999 cumulative IPC: 3.9998 (Simulation time: 0 hr 2 min 5 sec) 
Heartbeat CPU 0 instructions: 40000003 cycles: 10000396 heartbeat IPC: 4 cumulative IPC: 3.99985 (Simulation time: 0 hr 2 min 49 sec) 
Heartbeat CPU 0 instructions: 50000001 cycles: 12500409 heartbeat IPC: 3.99998 cumulative IPC: 3.99987 (Simulation time: 0 hr 3 min 33 sec) 
Warmup finished CPU 0 instructions: 50000001 cycles: 12500410 cumulative IPC: 3.99987 (Simulation time: 0 hr 3 min 33 sec) 

Warmup complete CPU 0 instructions: 50000001 cycles: 12500410 (Simulation time: 0 hr 3 min 33 sec) 

Heartbeat CPU 0 instructions: 60000001 cycles: 25448622 heartbeat IPC: 0.772308 cumulative IPC: 0.772308 (Simulation time: 0 hr 4 min 39 sec) 
Heartbeat CPU 0 instructions: 70000000 cycles: 38019921 heartbeat IPC: 0.795463 cumulative IPC: 0.783715 (Simulation time: 0 hr 5 min 44 sec) 
Heartbeat CPU 0 instructions: 80000000 cycles: 51121695 heartbeat IPC: 0.763256 cumulative IPC: 0.776774 (Simulation time: 0 hr 6 min 51 sec) 
Heartbeat CPU 0 instructions: 90000002 cycles: 64552326 heartbeat IPC: 0.744567 cumulative IPC: 0.768464 (Simulation time: 0 hr 7 min 58 sec) 
Heartbeat CPU 0 instructions: 100000004 cycles: 77703805 heartbeat IPC: 0.760371 cumulative IPC: 0.766832 (Simulation time: 0 hr 9 min 6 sec) 
*** Reached end of trace: /gpfs/projects/bsc18/MN4/bsc18/romol/ChampSim/traces/qualcomm_srv/srv403_ap.champsimtrace.xz
Heartbeat CPU 0 instructions: 110000000 cycles: 90986054 heartbeat IPC: 0.752885 cumulative IPC: 0.764472 (Simulation time: 0 hr 10 min 14 sec) 
Heartbeat CPU 0 instructions: 120000000 cycles: 103680586 heartbeat IPC: 0.787741 cumulative IPC: 0.767711 (Simulation time: 0 hr 11 min 17 sec) 
Heartbeat CPU 0 instructions: 130000001 cycles: 116515453 heartbeat IPC: 0.779128 cumulative IPC: 0.76912 (Simulation time: 0 hr 12 min 21 sec) 
Heartbeat CPU 0 instructions: 140000000 cycles: 130151363 heartbeat IPC: 0.733358 cumulative IPC: 0.764975 (Simulation time: 0 hr 13 min 25 sec) 
Heartbeat CPU 0 instructions: 150000004 cycles: 143067261 heartbeat IPC: 0.77424 cumulative IPC: 0.765892 (Simulation time: 0 hr 14 min 29 sec) 
Simulation finished CPU 0 instructions: 100000003 cycles: 130566852 cumulative IPC: 0.765892 (Simulation time: 0 hr 14 min 29 sec) 

Simulation complete CPU 0 instructions: 100000003 cycles: 130566852 (Simulation time: 0 hr 14 min 29 sec) 


ChampSim completed all CPUs

Saving instructions large page distribution to /home/bsc/bsc018186/scratch/itp_asplos25_AE/dump/srv403_ap.pdst...
Saving data large page distribution to /home/bsc/bsc018186/scratch/itp_asplos25_AE/dump/srv403_ap.pdst...
=== Simulation ===
CPU 0 runs /gpfs/projects/bsc18/MN4/bsc18/romol/ChampSim/traces/qualcomm_srv/srv403_ap.champsimtrace.xz

Region of Interest Statistics

CPU 0 cumulative IPC: 0.765892 instructions: 100000003 cycles: 130566852
CPU 0 Branch Prediction Accuracy: 82.8226% MPKI: 30.6827 Average ROB Occupancy at Mispredict: 12.3035
Branch type MPKI
BRANCH_DIRECT_JUMP: 1.04485
BRANCH_INDIRECT: 15.6331
BRANCH_CONDITIONAL: 10.2335
BRANCH_DIRECT_CALL: 1.90047
BRANCH_INDIRECT_CALL: 0.51571
BRANCH_RETURN: 1.35517

Instructions large pages: 0
Instructions small pages: 999
Large page distribution for instructions: 0%

Data large pages: 0
Data small pages: 9945
Large page distribution for data: 0%

cpu0_L1I TOTAL       ACCESS:   35204985  HIT:   27106440  MISS:    8098545  iACCESS:   35204985  iHIT:   27106440  iMISS:    8098545  dACCESS:          0  dHIT:          0  dMISS:          0  itACCESS:          0  itHIT:          0  itMISS:          0  dtACCESS:          0  dtHIT:          0  dtMISS:          0
cpu0_L1I LOAD         ACCESS:   10322795  HIT:    8055707  MISS:    2267088  iACCESS:   10322795  iHIT:    8055707  iMISS:    2267088  dACCESS:          0  dHIT:          0  dMISS:          0  itACCESS:          0  itHIT:          0  itMISS:          0  dtACCESS:          0  dtHIT:          0  dtMISS:          0
cpu0_L1I RFO          ACCESS:          0  HIT:          0  MISS:          0  iACCESS:          0  iHIT:          0  iMISS:          0  dACCESS:          0  dHIT:          0  dMISS:          0  itACCESS:          0  itHIT:          0  itMISS:          0  dtACCESS:          0  dtHIT:          0  dtMISS:          0
cpu0_L1I PREFETCH     ACCESS:   24882190  HIT:   19050733  MISS:    5831457  iACCESS:   24882190  iHIT:   19050733  iMISS:    5831457  dACCESS:          0  dHIT:          0  dMISS:          0  itACCESS:          0  itHIT:          0  itMISS:          0  dtACCESS:          0  dtHIT:          0  dtMISS:          0
cpu0_L1I WRITE        ACCESS:          0  HIT:          0  MISS:          0  iACCESS:          0  iHIT:          0  iMISS:          0  dACCESS:          0  dHIT:          0  dMISS:          0  itACCESS:          0  itHIT:          0  itMISS:          0  dtACCESS:          0  dtHIT:          0  dtMISS:          0
cpu0_L1I TRANSLATION  ACCESS:          0  HIT:          0  MISS:          0  iACCESS:          0  iHIT:          0  iMISS:          0  dACCESS:          0  dHIT:          0  dMISS:          0  itACCESS:          0  itHIT:          0  itMISS:          0  dtACCESS:          0  dtHIT:          0  dtMISS:          0
cpu0_L1I PREFETCH  REQUESTED:   27307955  ISSUED:   27307553  CROSSED:          0  USEFUL:    1943724  USELESS:     625632
cpu0_L1I AVERAGE iMISS LATENCY: 10.9706 cycles
cpu0_L1I AVERAGE dMISS LATENCY: 0 cycles
cpu0_L1I AVERAGE itMISS LATENCY: 0 cycles
cpu0_L1I AVERAGE dtMISS LATENCY: 0 cycles
cpu0_L1I PAGE CROSSINGS (TLB HIT):         0 
cpu0_L1I PAGE CROSSINGS (TLB MISS):         0 
cpu0_L1I AVERAGE MISS LATENCY: 10.9706 cycles
cpu0_ITLB TOTAL       ACCESS:   29283279  HIT:   27359530  MISS:    1923749  iACCESS:   29283279  iHIT:   27359530  iMISS:    1923749  dACCESS:          0  dHIT:          0  dMISS:          0  itACCESS:          0  itHIT:          0  itMISS:          0  dtACCESS:          0  dtHIT:          0  dtMISS:          0
cpu0_ITLB LOAD         ACCESS:   29283279  HIT:   27359530  MISS:    1923749  iACCESS:   29283279  iHIT:   27359530  iMISS:    1923749  dACCESS:          0  dHIT:          0  dMISS:          0  itACCESS:          0  itHIT:          0  itMISS:          0  dtACCESS:          0  dtHIT:          0  dtMISS:          0
cpu0_ITLB RFO          ACCESS:          0  HIT:          0  MISS:          0  iACCESS:          0  iHIT:          0  iMISS:          0  dACCESS:          0  dHIT:          0  dMISS:          0  itACCESS:          0  itHIT:          0  itMISS:          0  dtACCESS:          0  dtHIT:          0  dtMISS:          0
cpu0_ITLB PREFETCH     ACCESS:          0  HIT:          0  MISS:          0  iACCESS:          0  iHIT:          0  iMISS:          0  dACCESS:          0  dHIT:          0  dMISS:          0  itACCESS:          0  itHIT:          0  itMISS:          0  dtACCESS:          0  dtHIT:          0  dtMISS:          0
cpu0_ITLB WRITE        ACCESS:          0  HIT:          0  MISS:          0  iACCESS:          0  iHIT:          0  iMISS:          0  dACCESS:          0  dHIT:          0  dMISS:          0  itACCESS:          0  itHIT:          0  itMISS:          0  dtACCESS:          0  dtHIT:          0  dtMISS:          0
cpu0_ITLB TRANSLATION  ACCESS:          0  HIT:          0  MISS:          0  iACCESS:          0  iHIT:          0  iMISS:          0  dACCESS:          0  dHIT:          0  dMISS:          0  itACCESS:          0  itHIT:          0  itMISS:          0  dtACCESS:          0  dtHIT:          0  dtMISS:          0
cpu0_ITLB PREFETCH  REQUESTED:          0  ISSUED:          0  CROSSED:          0  USEFUL:     316771  USELESS:      63830
cpu0_ITLB AVERAGE iMISS LATENCY: 1.99223 cycles
cpu0_ITLB AVERAGE dMISS LATENCY: 0 cycles
cpu0_ITLB AVERAGE itMISS LATENCY: 0 cycles
cpu0_ITLB AVERAGE dtMISS LATENCY: 0 cycles
cpu0_ITLB PAGE CROSSINGS (TLB HIT):         0 
cpu0_ITLB PAGE CROSSINGS (TLB MISS):         0 
cpu0_ITLB AVERAGE MISS LATENCY: 1.99223 cycles
cpu0_DTLB TOTAL       ACCESS:   27742799  HIT:   25653378  MISS:    2089421  iACCESS:          0  iHIT:          0  iMISS:          0  dACCESS:   27742799  dHIT:   25653378  dMISS:    2089421  itACCESS:          0  itHIT:          0  itMISS:          0  dtACCESS:          0  dtHIT:          0  dtMISS:          0
cpu0_DTLB LOAD         ACCESS:   27742799  HIT:   25653378  MISS:    2089421  iACCESS:          0  iHIT:          0  iMISS:          0  dACCESS:   27742799  dHIT:   25653378  dMISS:    2089421  itACCESS:          0  itHIT:          0  itMISS:          0  dtACCESS:          0  dtHIT:          0  dtMISS:          0
cpu0_DTLB RFO          ACCESS:          0  HIT:          0  MISS:          0  iACCESS:          0  iHIT:          0  iMISS:          0  dACCESS:          0  dHIT:          0  dMISS:          0  itACCESS:          0  itHIT:          0  itMISS:          0  dtACCESS:          0  dtHIT:          0  dtMISS:          0
cpu0_DTLB PREFETCH     ACCESS:          0  HIT:          0  MISS:          0  iACCESS:          0  iHIT:          0  iMISS:          0  dACCESS:          0  dHIT:          0  dMISS:          0  itACCESS:          0  itHIT:          0  itMISS:          0  dtACCESS:          0  dtHIT:          0  dtMISS:          0
cpu0_DTLB WRITE        ACCESS:          0  HIT:          0  MISS:          0  iACCESS:          0  iHIT:          0  iMISS:          0  dACCESS:          0  dHIT:          0  dMISS:          0  itACCESS:          0  itHIT:          0  itMISS:          0  dtACCESS:          0  dtHIT:          0  dtMISS:          0
cpu0_DTLB TRANSLATION  ACCESS:          0  HIT:          0  MISS:          0  iACCESS:          0  iHIT:          0  iMISS:          0  dACCESS:          0  dHIT:          0  dMISS:          0  itACCESS:          0  itHIT:          0  itMISS:          0  dtACCESS:          0  dtHIT:          0  dtMISS:          0
cpu0_DTLB PREFETCH  REQUESTED:          0  ISSUED:          0  CROSSED:          0  USEFUL:          0  USELESS:          0
cpu0_DTLB AVERAGE iMISS LATENCY: 0 cycles
cpu0_DTLB AVERAGE dMISS LATENCY: 10.8748 cycles
cpu0_DTLB AVERAGE itMISS LATENCY: 0 cycles
cpu0_DTLB AVERAGE dtMISS LATENCY: 0 cycles
cpu0_DTLB PAGE CROSSINGS (TLB HIT):         0 
cpu0_DTLB PAGE CROSSINGS (TLB MISS):         0 
cpu0_DTLB AVERAGE MISS LATENCY: 10.8748 cycles
cpu0_STLB TOTAL       ACCESS:    1623678  HIT:    1479317  MISS:     144361  iACCESS:     380612  iHIT:     372372  iMISS:       8240  dACCESS:    1243066  dHIT:    1106945  dMISS:     136121  itACCESS:          0  itHIT:          0  itMISS:          0  dtACCESS:          0  dtHIT:          0  dtMISS:          0
cpu0_STLB LOAD         ACCESS:    1623678  HIT:    1479317  MISS:     144361  iACCESS:     380612  iHIT:     372372  iMISS:       8240  dACCESS:    1243066  dHIT:    1106945  dMISS:     136121  itACCESS:          0  itHIT:          0  itMISS:          0  dtACCESS:          0  dtHIT:          0  dtMISS:          0
cpu0_STLB RFO          ACCESS:          0  HIT:          0  MISS:          0  iACCESS:          0  iHIT:          0  iMISS:          0  dACCESS:          0  dHIT:          0  dMISS:          0  itACCESS:          0  itHIT:          0  itMISS:          0  dtACCESS:          0  dtHIT:          0  dtMISS:          0
cpu0_STLB PREFETCH     ACCESS:          0  HIT:          0  MISS:          0  iACCESS:          0  iHIT:          0  iMISS:          0  dACCESS:          0  dHIT:          0  dMISS:          0  itACCESS:          0  itHIT:          0  itMISS:          0  dtACCESS:          0  dtHIT:          0  dtMISS:          0
cpu0_STLB WRITE        ACCESS:          0  HIT:          0  MISS:          0  iACCESS:          0  iHIT:          0  iMISS:          0  dACCESS:          0  dHIT:          0  dMISS:          0  itACCESS:          0  itHIT:          0  itMISS:          0  dtACCESS:          0  dtHIT:          0  dtMISS:          0
cpu0_STLB TRANSLATION  ACCESS:          0  HIT:          0  MISS:          0  iACCESS:          0  iHIT:          0  iMISS:          0  dACCESS:          0  dHIT:          0  dMISS:          0  itACCESS:          0  itHIT:          0  itMISS:          0  dtACCESS:          0  dtHIT:          0  dtMISS:          0
cpu0_STLB PREFETCH  REQUESTED:          0  ISSUED:          0  CROSSED:          0  USEFUL:          0  USELESS:          0
cpu0_STLB AVERAGE iMISS LATENCY: 6.1166 cycles
cpu0_STLB AVERAGE dMISS LATENCY: 88.6336 cycles
cpu0_STLB AVERAGE itMISS LATENCY: 0 cycles
cpu0_STLB AVERAGE dtMISS LATENCY: 0 cycles
cpu0_STLB PAGE CROSSINGS (TLB HIT):         0 
cpu0_STLB PAGE CROSSINGS (TLB MISS):         0 
cpu0_STLB AVERAGE MISS LATENCY: 94.7502 cycles
cpu0_L1D TOTAL       ACCESS:   41522267  HIT:   38054146  MISS:    3468121  iACCESS:          0  iHIT:          0  iMISS:          0  dACCESS:   41306030  dHIT:   38040687  dMISS:    3265343  itACCESS:       9803  itHIT:       1041  itMISS:       8762  dtACCESS:     206434  dtHIT:      12418  dtMISS:     194016
cpu0_L1D LOAD         ACCESS:   18940755  HIT:   17460062  MISS:    1480693  iACCESS:          0  iHIT:          0  iMISS:          0  dACCESS:   18940755  dHIT:   17460062  dMISS:    1480693  itACCESS:          0  itHIT:          0  itMISS:          0  dtACCESS:          0  dtHIT:          0  dtMISS:          0
cpu0_L1D RFO          ACCESS:          0  HIT:          0  MISS:          0  iACCESS:          0  iHIT:          0  iMISS:          0  dACCESS:          0  dHIT:          0  dMISS:          0  itACCESS:          0  itHIT:          0  itMISS:          0  dtACCESS:          0  dtHIT:          0  dtMISS:          0
cpu0_L1D PREFETCH     ACCESS:   12193932  HIT:   10849704  MISS:    1344228  iACCESS:          0  iHIT:          0  iMISS:          0  dACCESS:   12193932  dHIT:   10849704  dMISS:    1344228  itACCESS:          0  itHIT:          0  itMISS:          0  dtACCESS:          0  dtHIT:          0  dtMISS:          0
cpu0_L1D WRITE        ACCESS:   10171343  HIT:    9730921  MISS:     440422  iACCESS:          0  iHIT:          0  iMISS:          0  dACCESS:   10171343  dHIT:    9730921  dMISS:     440422  itACCESS:          0  itHIT:          0  itMISS:          0  dtACCESS:          0  dtHIT:          0  dtMISS:          0
cpu0_L1D TRANSLATION  ACCESS:     216237  HIT:      13459  MISS:     202778  iACCESS:          0  iHIT:          0  iMISS:          0  dACCESS:          0  dHIT:          0  dMISS:          0  itACCESS:       9803  itHIT:       1041  itMISS:       8762  dtACCESS:     206434  dtHIT:      12418  dtMISS:     194016
cpu0_L1D PREFETCH  REQUESTED:   18940755  ISSUED:   17066523  CROSSED:          0  USEFUL:     307796  USELESS:     703862
cpu0_L1D AVERAGE iMISS LATENCY: 0 cycles
cpu0_L1D AVERAGE dMISS LATENCY: 29.0567 cycles
cpu0_L1D AVERAGE itMISS LATENCY: 0.229357 cycles
cpu0_L1D AVERAGE dtMISS LATENCY: 2.9089 cycles
cpu0_L1D PAGE CROSSINGS (TLB HIT):         0 
cpu0_L1D PAGE CROSSINGS (TLB MISS):         0 
cpu0_L1D AVERAGE MISS LATENCY: 32.1949 cycles
cpu0_L2C TOTAL       ACCESS:    6997853  HIT:    2575022  MISS:    4422831  iACCESS:    3302489  iHIT:    1427012  iMISS:    1875477  dACCESS:    3504727  dHIT:    1025710  dMISS:    2479017  itACCESS:       8762  itHIT:       2973  itMISS:       5789  dtACCESS:     181875  dtHIT:     119327  dtMISS:      62548
cpu0_L2C LOAD         ACCESS:    1704586  HIT:     544916  MISS:    1159670  iACCESS:     772662  iHIT:     301965  iMISS:     470697  dACCESS:     931924  dHIT:     242951  dMISS:     688973  itACCESS:          0  itHIT:          0  itMISS:          0  dtACCESS:          0  dtHIT:          0  dtMISS:          0
cpu0_L2C RFO          ACCESS:     158869  HIT:      34729  MISS:     124140  iACCESS:          0  iHIT:          0  iMISS:          0  dACCESS:     158869  dHIT:      34729  dMISS:     124140  itACCESS:          0  itHIT:          0  itMISS:          0  dtACCESS:          0  dtHIT:          0  dtMISS:          0
cpu0_L2C PREFETCH     ACCESS:    4662950  HIT:    1752082  MISS:    2910868  iACCESS:    2529827  iHIT:    1125047  iMISS:    1404780  dACCESS:    2133123  dHIT:     627035  dMISS:    1506088  itACCESS:          0  itHIT:          0  itMISS:          0  dtACCESS:          0  dtHIT:          0  dtMISS:          0
cpu0_L2C WRITE        ACCESS:     280811  HIT:     120995  MISS:     159816  iACCESS:          0  iHIT:          0  iMISS:          0  dACCESS:     280811  dHIT:     120995  dMISS:     159816  itACCESS:          0  itHIT:          0  itMISS:          0  dtACCESS:          0  dtHIT:          0  dtMISS:          0
cpu0_L2C TRANSLATION  ACCESS:     190637  HIT:     122300  MISS:      68337  iACCESS:          0  iHIT:          0  iMISS:          0  dACCESS:          0  dHIT:          0  dMISS:          0  itACCESS:       8762  itHIT:       2973  itMISS:       5789  dtACCESS:     181875  dtHIT:     119327  dtMISS:      62548
cpu0_L2C PREFETCH  REQUESTED:    1380136  ISSUED:    1380136  CROSSED:          0  USEFUL:     361597  USELESS:     321631
cpu0_L2C AVERAGE iMISS LATENCY: 13.2329 cycles
cpu0_L2C AVERAGE dMISS LATENCY: 24.953 cycles
cpu0_L2C AVERAGE itMISS LATENCY: 0.160671 cycles
cpu0_L2C AVERAGE dtMISS LATENCY: 1.89432 cycles
cpu0_L2C PAGE CROSSINGS (TLB HIT):         0 
cpu0_L2C PAGE CROSSINGS (TLB MISS):         0 
cpu0_L2C AVERAGE MISS LATENCY: 40.2408 cycles
LLC TOTAL       ACCESS:    4375656  HIT:    3774748  MISS:     600908  iACCESS:    1831189  iHIT:    1679243  iMISS:     151946  dACCESS:    2476130  dHIT:    2071503  dMISS:     404627  itACCESS:       5789  itHIT:       2364  itMISS:       3425  dtACCESS:      62548  dtHIT:      21638  dtMISS:      40910
LLC LOAD         ACCESS:    1158007  HIT:    1028721  MISS:     129286  iACCESS:     469352  iHIT:     439531  iMISS:      29821  dACCESS:     688655  dHIT:     589190  dMISS:      99465  itACCESS:          0  itHIT:          0  itMISS:          0  dtACCESS:          0  dtHIT:          0  dtMISS:          0
LLC RFO          ACCESS:     124138  HIT:      90168  MISS:      33970  iACCESS:          0  iHIT:          0  iMISS:          0  dACCESS:     124138  dHIT:      90168  dMISS:      33970  itACCESS:          0  itHIT:          0  itMISS:          0  dtACCESS:          0  dtHIT:          0  dtMISS:          0
LLC PREFETCH     ACCESS:    2827038  HIT:    2435176  MISS:     391862  iACCESS:    1361837  iHIT:    1239712  iMISS:     122125  dACCESS:    1465201  dHIT:    1195464  dMISS:     269737  itACCESS:          0  itHIT:          0  itMISS:          0  dtACCESS:          0  dtHIT:          0  dtMISS:          0
LLC WRITE        ACCESS:     198136  HIT:     196681  MISS:       1455  iACCESS:          0  iHIT:          0  iMISS:          0  dACCESS:     198136  dHIT:     196681  dMISS:       1455  itACCESS:          0  itHIT:          0  itMISS:          0  dtACCESS:          0  dtHIT:          0  dtMISS:          0
LLC TRANSLATION  ACCESS:      68337  HIT:      24002  MISS:      44335  iACCESS:          0  iHIT:          0  iMISS:          0  dACCESS:          0  dHIT:          0  dMISS:          0  itACCESS:       5789  itHIT:       2364  itMISS:       3425  dtACCESS:      62548  dtHIT:      21638  dtMISS:      40910
LLC PREFETCH  REQUESTED:          0  ISSUED:          0  CROSSED:          0  USEFUL:          0  USELESS:          0
LLC AVERAGE iMISS LATENCY: 38.7043 cycles
LLC AVERAGE dMISS LATENCY: 110.494 cycles
LLC AVERAGE itMISS LATENCY: 0.994314 cycles
LLC AVERAGE dtMISS LATENCY: 11.9006 cycles
LLC PAGE CROSSINGS (TLB HIT):         0 
LLC PAGE CROSSINGS (TLB MISS):         0 
LLC AVERAGE MISS LATENCY: 162.093 cycles

PageTableWalker TOTAL       ACCESS:      72073  
PageTableWalker AVERAGE LATENCY: 4.76294 cycles
PageTableWalker TOTAL LATENCY: 343279 cycles

DRAM Statistics
Channel 0
 RQ ROW_BUFFER_HIT:     146259
  ROW_BUFFER_MISS:     453132
 AVG DBUS CONGESTED CYCLE:    3.64397
 WQ ROW_BUFFER_HIT:      14337
  ROW_BUFFER_MISS:      26936  FULL:          0

