last_page:0x200000000000000
VMEM_RES_CAP:0x100000
PAGE_SIZE:4096
LOG2_PAGE_SIZE:12
LOG2_PAGE_TABLE_SIZE:9
page_table_levels:5
WARNING: physical memory size is smaller than virtual memory size
FDiP enabled with aggresivity 16

*** ChampSim Multicore Out-of-Order Simulator ***

Warmup Instructions: 50000000
Simulation Instructions: 100000000
Number of CPUs: 1
Small page size: 4096
Large page size: 2097152

CPU 0 Bimodal branch predictor
Basic BTB sets: 1024 ways: 8 indirect buffer size: 4096 RAS size: 64
Instruction page size distrubution: 0
Loading instruction page size distribution from /home/bsc/bsc018186/scratch/itp_asplos25_AE/dump/srv44_ap.pdst
Data page size distrubution: 0
Loading data page size distribution from /home/bsc/bsc018186/scratch/itp_asplos25_AE/dump/srv44_ap.pdst
cpu0_L2C IP-based stride prefetcher
cpu0_L1D next line prefetcher
CHiRPing...
cpu0_L1I next line prefetcher
Off-chip DRAM Size: 4 GiB Channels: 1 Width: 64-bit Data Rate: 3200 MT/s
Heartbeat CPU 0 instructions: 10000000 cycles: 2500203 heartbeat IPC: 3.99968 cumulative IPC: 3.99968 (Simulation time: 0 hr 0 min 38 sec) 
Heartbeat CPU 0 instructions: 20000001 cycles: 5000267 heartbeat IPC: 3.9999 cumulative IPC: 3.99979 (Simulation time: 0 hr 1 min 20 sec) 
Heartbeat CPU 0 instructions: 30000002 cycles: 7500303 heartbeat IPC: 3.99995 cumulative IPC: 3.99984 (Simulation time: 0 hr 2 min 1 sec) 
Heartbeat CPU 0 instructions: 40000000 cycles: 10000330 heartbeat IPC: 3.99996 cumulative IPC: 3.99987 (Simulation time: 0 hr 2 min 43 sec) 
Heartbeat CPU 0 instructions: 50000000 cycles: 12500340 heartbeat IPC: 3.99999 cumulative IPC: 3.9999 (Simulation time: 0 hr 3 min 24 sec) 
Warmup finished CPU 0 instructions: 50000000 cycles: 12500341 cumulative IPC: 3.9999 (Simulation time: 0 hr 3 min 24 sec) 

Warmup complete CPU 0 instructions: 50000000 cycles: 12500341 (Simulation time: 0 hr 3 min 24 sec) 

Heartbeat CPU 0 instructions: 60000003 cycles: 27748761 heartbeat IPC: 0.655806 cumulative IPC: 0.655806 (Simulation time: 0 hr 4 min 30 sec) 
Heartbeat CPU 0 instructions: 70000001 cycles: 42241331 heartbeat IPC: 0.690009 cumulative IPC: 0.672473 (Simulation time: 0 hr 5 min 36 sec) 
Heartbeat CPU 0 instructions: 80000000 cycles: 56610416 heartbeat IPC: 0.695939 cumulative IPC: 0.680117 (Simulation time: 0 hr 6 min 41 sec) 
Heartbeat CPU 0 instructions: 90000002 cycles: 70510220 heartbeat IPC: 0.719435 cumulative IPC: 0.689538 (Simulation time: 0 hr 7 min 46 sec) 
Heartbeat CPU 0 instructions: 100000003 cycles: 84667265 heartbeat IPC: 0.706363 cumulative IPC: 0.692839 (Simulation time: 0 hr 8 min 53 sec) 
*** Reached end of trace: /gpfs/projects/bsc18/MN4/bsc18/romol/ChampSim/traces/qualcomm_srv/srv44_ap.champsimtrace.xz
Heartbeat CPU 0 instructions: 110000002 cycles: 99233335 heartbeat IPC: 0.686527 cumulative IPC: 0.691779 (Simulation time: 0 hr 10 min 0 sec) 
Heartbeat CPU 0 instructions: 120000000 cycles: 114145039 heartbeat IPC: 0.670615 cumulative IPC: 0.688674 (Simulation time: 0 hr 11 min 7 sec) 
Heartbeat CPU 0 instructions: 130000000 cycles: 128010945 heartbeat IPC: 0.721194 cumulative IPC: 0.692578 (Simulation time: 0 hr 12 min 12 sec) 
Heartbeat CPU 0 instructions: 140000001 cycles: 141526367 heartbeat IPC: 0.739896 cumulative IPC: 0.697534 (Simulation time: 0 hr 13 min 17 sec) 
Heartbeat CPU 0 instructions: 150000000 cycles: 155803853 heartbeat IPC: 0.700404 cumulative IPC: 0.69782 (Simulation time: 0 hr 14 min 24 sec) 
Simulation finished CPU 0 instructions: 100000000 cycles: 143303513 cumulative IPC: 0.69782 (Simulation time: 0 hr 14 min 24 sec) 

Simulation complete CPU 0 instructions: 100000000 cycles: 143303513 (Simulation time: 0 hr 14 min 24 sec) 


ChampSim completed all CPUs

Saving instructions large page distribution to /home/bsc/bsc018186/scratch/itp_asplos25_AE/dump/srv44_ap.pdst...
Saving data large page distribution to /home/bsc/bsc018186/scratch/itp_asplos25_AE/dump/srv44_ap.pdst...
=== Simulation ===
CPU 0 runs /gpfs/projects/bsc18/MN4/bsc18/romol/ChampSim/traces/qualcomm_srv/srv44_ap.champsimtrace.xz

Region of Interest Statistics

CPU 0 cumulative IPC: 0.69782 instructions: 100000000 cycles: 143303513
CPU 0 Branch Prediction Accuracy: 82.6949% MPKI: 31.0017 Average ROB Occupancy at Mispredict: 12.6414
Branch type MPKI
BRANCH_DIRECT_JUMP: 1.04266
BRANCH_INDIRECT: 15.9928
BRANCH_CONDITIONAL: 10.2125
BRANCH_DIRECT_CALL: 1.88785
BRANCH_INDIRECT_CALL: 0.515821
BRANCH_RETURN: 1.35008

Instructions large pages: 0
Instructions small pages: 962
Large page distribution for instructions: 0%

Data large pages: 0
Data small pages: 9382
Large page distribution for data: 0%

cpu0_L1I TOTAL       ACCESS:   35631735  HIT:   27235263  MISS:    8396472  iACCESS:   35631735  iHIT:   27235263  iMISS:    8396472  dACCESS:          0  dHIT:          0  dMISS:          0  itACCESS:          0  itHIT:          0  itMISS:          0  dtACCESS:          0  dtHIT:          0  dtMISS:          0
cpu0_L1I LOAD         ACCESS:   10443656  HIT:    8095258  MISS:    2348398  iACCESS:   10443656  iHIT:    8095258  iMISS:    2348398  dACCESS:          0  dHIT:          0  dMISS:          0  itACCESS:          0  itHIT:          0  itMISS:          0  dtACCESS:          0  dtHIT:          0  dtMISS:          0
cpu0_L1I RFO          ACCESS:          0  HIT:          0  MISS:          0  iACCESS:          0  iHIT:          0  iMISS:          0  dACCESS:          0  dHIT:          0  dMISS:          0  itACCESS:          0  itHIT:          0  itMISS:          0  dtACCESS:          0  dtHIT:          0  dtMISS:          0
cpu0_L1I PREFETCH     ACCESS:   25188079  HIT:   19140005  MISS:    6048074  iACCESS:   25188079  iHIT:   19140005  iMISS:    6048074  dACCESS:          0  dHIT:          0  dMISS:          0  itACCESS:          0  itHIT:          0  itMISS:          0  dtACCESS:          0  dtHIT:          0  dtMISS:          0
cpu0_L1I WRITE        ACCESS:          0  HIT:          0  MISS:          0  iACCESS:          0  iHIT:          0  iMISS:          0  dACCESS:          0  dHIT:          0  dMISS:          0  itACCESS:          0  itHIT:          0  itMISS:          0  dtACCESS:          0  dtHIT:          0  dtMISS:          0
cpu0_L1I TRANSLATION  ACCESS:          0  HIT:          0  MISS:          0  iACCESS:          0  iHIT:          0  iMISS:          0  dACCESS:          0  dHIT:          0  dMISS:          0  itACCESS:          0  itHIT:          0  itMISS:          0  dtACCESS:          0  dtHIT:          0  dtMISS:          0
cpu0_L1I PREFETCH  REQUESTED:   27512220  ISSUED:   27509767  CROSSED:          0  USEFUL:    1942513  USELESS:     627695
cpu0_L1I AVERAGE iMISS LATENCY: 13.4258 cycles
cpu0_L1I AVERAGE dMISS LATENCY: 0 cycles
cpu0_L1I AVERAGE itMISS LATENCY: 0 cycles
cpu0_L1I AVERAGE dtMISS LATENCY: 0 cycles
cpu0_L1I PAGE CROSSINGS (TLB HIT):         0 
cpu0_L1I PAGE CROSSINGS (TLB MISS):         0 
cpu0_L1I AVERAGE MISS LATENCY: 13.4258 cycles
cpu0_ITLB TOTAL       ACCESS:   29489605  HIT:   27559404  MISS:    1930201  iACCESS:   29489605  iHIT:   27559404  iMISS:    1930201  dACCESS:          0  dHIT:          0  dMISS:          0  itACCESS:          0  itHIT:          0  itMISS:          0  dtACCESS:          0  dtHIT:          0  dtMISS:          0
cpu0_ITLB LOAD         ACCESS:   29489605  HIT:   27559404  MISS:    1930201  iACCESS:   29489605  iHIT:   27559404  iMISS:    1930201  dACCESS:          0  dHIT:          0  dMISS:          0  itACCESS:          0  itHIT:          0  itMISS:          0  dtACCESS:          0  dtHIT:          0  dtMISS:          0
cpu0_ITLB RFO          ACCESS:          0  HIT:          0  MISS:          0  iACCESS:          0  iHIT:          0  iMISS:          0  dACCESS:          0  dHIT:          0  dMISS:          0  itACCESS:          0  itHIT:          0  itMISS:          0  dtACCESS:          0  dtHIT:          0  dtMISS:          0
cpu0_ITLB PREFETCH     ACCESS:          0  HIT:          0  MISS:          0  iACCESS:          0  iHIT:          0  iMISS:          0  dACCESS:          0  dHIT:          0  dMISS:          0  itACCESS:          0  itHIT:          0  itMISS:          0  dtACCESS:          0  dtHIT:          0  dtMISS:          0
cpu0_ITLB WRITE        ACCESS:          0  HIT:          0  MISS:          0  iACCESS:          0  iHIT:          0  iMISS:          0  dACCESS:          0  dHIT:          0  dMISS:          0  itACCESS:          0  itHIT:          0  itMISS:          0  dtACCESS:          0  dtHIT:          0  dtMISS:          0
cpu0_ITLB TRANSLATION  ACCESS:          0  HIT:          0  MISS:          0  iACCESS:          0  iHIT:          0  iMISS:          0  dACCESS:          0  dHIT:          0  dMISS:          0  itACCESS:          0  itHIT:          0  itMISS:          0  dtACCESS:          0  dtHIT:          0  dtMISS:          0
cpu0_ITLB PREFETCH  REQUESTED:          0  ISSUED:          0  CROSSED:          0  USEFUL:     316816  USELESS:      64157
cpu0_ITLB AVERAGE iMISS LATENCY: 3.16924 cycles
cpu0_ITLB AVERAGE dMISS LATENCY: 0 cycles
cpu0_ITLB AVERAGE itMISS LATENCY: 0 cycles
cpu0_ITLB AVERAGE dtMISS LATENCY: 0 cycles
cpu0_ITLB PAGE CROSSINGS (TLB HIT):         0 
cpu0_ITLB PAGE CROSSINGS (TLB MISS):         0 
cpu0_ITLB AVERAGE MISS LATENCY: 3.16924 cycles
cpu0_DTLB TOTAL       ACCESS:   27865609  HIT:   26089445  MISS:    1776164  iACCESS:          0  iHIT:          0  iMISS:          0  dACCESS:   27865609  dHIT:   26089445  dMISS:    1776164  itACCESS:          0  itHIT:          0  itMISS:          0  dtACCESS:          0  dtHIT:          0  dtMISS:          0
cpu0_DTLB LOAD         ACCESS:   27865609  HIT:   26089445  MISS:    1776164  iACCESS:          0  iHIT:          0  iMISS:          0  dACCESS:   27865609  dHIT:   26089445  dMISS:    1776164  itACCESS:          0  itHIT:          0  itMISS:          0  dtACCESS:          0  dtHIT:          0  dtMISS:          0
cpu0_DTLB RFO          ACCESS:          0  HIT:          0  MISS:          0  iACCESS:          0  iHIT:          0  iMISS:          0  dACCESS:          0  dHIT:          0  dMISS:          0  itACCESS:          0  itHIT:          0  itMISS:          0  dtACCESS:          0  dtHIT:          0  dtMISS:          0
cpu0_DTLB PREFETCH     ACCESS:          0  HIT:          0  MISS:          0  iACCESS:          0  iHIT:          0  iMISS:          0  dACCESS:          0  dHIT:          0  dMISS:          0  itACCESS:          0  itHIT:          0  itMISS:          0  dtACCESS:          0  dtHIT:          0  dtMISS:          0
cpu0_DTLB WRITE        ACCESS:          0  HIT:          0  MISS:          0  iACCESS:          0  iHIT:          0  iMISS:          0  dACCESS:          0  dHIT:          0  dMISS:          0  itACCESS:          0  itHIT:          0  itMISS:          0  dtACCESS:          0  dtHIT:          0  dtMISS:          0
cpu0_DTLB TRANSLATION  ACCESS:          0  HIT:          0  MISS:          0  iACCESS:          0  iHIT:          0  iMISS:          0  dACCESS:          0  dHIT:          0  dMISS:          0  itACCESS:          0  itHIT:          0  itMISS:          0  dtACCESS:          0  dtHIT:          0  dtMISS:          0
cpu0_DTLB PREFETCH  REQUESTED:          0  ISSUED:          0  CROSSED:          0  USEFUL:          0  USELESS:          0
cpu0_DTLB AVERAGE iMISS LATENCY: 0 cycles
cpu0_DTLB AVERAGE dMISS LATENCY: 10.9604 cycles
cpu0_DTLB AVERAGE itMISS LATENCY: 0 cycles
cpu0_DTLB AVERAGE dtMISS LATENCY: 0 cycles
cpu0_DTLB PAGE CROSSINGS (TLB HIT):         0 
cpu0_DTLB PAGE CROSSINGS (TLB MISS):         0 
cpu0_DTLB AVERAGE MISS LATENCY: 10.9604 cycles
cpu0_STLB TOTAL       ACCESS:    1465294  HIT:    1295936  MISS:     169358  iACCESS:     380989  iHIT:     322048  iMISS:      58941  dACCESS:    1084305  dHIT:     973888  dMISS:     110417  itACCESS:          0  itHIT:          0  itMISS:          0  dtACCESS:          0  dtHIT:          0  dtMISS:          0
cpu0_STLB LOAD         ACCESS:    1465294  HIT:    1295936  MISS:     169358  iACCESS:     380989  iHIT:     322048  iMISS:      58941  dACCESS:    1084305  dHIT:     973888  dMISS:     110417  itACCESS:          0  itHIT:          0  itMISS:          0  dtACCESS:          0  dtHIT:          0  dtMISS:          0
cpu0_STLB RFO          ACCESS:          0  HIT:          0  MISS:          0  iACCESS:          0  iHIT:          0  iMISS:          0  dACCESS:          0  dHIT:          0  dMISS:          0  itACCESS:          0  itHIT:          0  itMISS:          0  dtACCESS:          0  dtHIT:          0  dtMISS:          0
cpu0_STLB PREFETCH     ACCESS:          0  HIT:          0  MISS:          0  iACCESS:          0  iHIT:          0  iMISS:          0  dACCESS:          0  dHIT:          0  dMISS:          0  itACCESS:          0  itHIT:          0  itMISS:          0  dtACCESS:          0  dtHIT:          0  dtMISS:          0
cpu0_STLB WRITE        ACCESS:          0  HIT:          0  MISS:          0  iACCESS:          0  iHIT:          0  iMISS:          0  dACCESS:          0  dHIT:          0  dMISS:          0  itACCESS:          0  itHIT:          0  itMISS:          0  dtACCESS:          0  dtHIT:          0  dtMISS:          0
cpu0_STLB TRANSLATION  ACCESS:          0  HIT:          0  MISS:          0  iACCESS:          0  iHIT:          0  iMISS:          0  dACCESS:          0  dHIT:          0  dMISS:          0  itACCESS:          0  itHIT:          0  itMISS:          0  dtACCESS:          0  dtHIT:          0  dtMISS:          0
cpu0_STLB PREFETCH  REQUESTED:          0  ISSUED:          0  CROSSED:          0  USEFUL:          0  USELESS:          0
cpu0_STLB AVERAGE iMISS LATENCY: 18.3599 cycles
cpu0_STLB AVERAGE dMISS LATENCY: 63.889 cycles
cpu0_STLB AVERAGE itMISS LATENCY: 0 cycles
cpu0_STLB AVERAGE dtMISS LATENCY: 0 cycles
cpu0_STLB PAGE CROSSINGS (TLB HIT):         0 
cpu0_STLB PAGE CROSSINGS (TLB MISS):         0 
cpu0_STLB AVERAGE MISS LATENCY: 82.2489 cycles
cpu0_L1D TOTAL       ACCESS:   41557079  HIT:   38139006  MISS:    3418073  iACCESS:          0  iHIT:          0  iMISS:          0  dACCESS:   41329460  dHIT:   38118856  dMISS:    3210604  itACCESS:      63920  itHIT:       9270  itMISS:      54650  dtACCESS:     163699  dtHIT:      10880  dtMISS:     152819
cpu0_L1D LOAD         ACCESS:   19052298  HIT:   17588240  MISS:    1464058  iACCESS:          0  iHIT:          0  iMISS:          0  dACCESS:   19052298  dHIT:   17588240  dMISS:    1464058  itACCESS:          0  itHIT:          0  itMISS:          0  dtACCESS:          0  dtHIT:          0  dtMISS:          0
cpu0_L1D RFO          ACCESS:          0  HIT:          0  MISS:          0  iACCESS:          0  iHIT:          0  iMISS:          0  dACCESS:          0  dHIT:          0  dMISS:          0  itACCESS:          0  itHIT:          0  itMISS:          0  dtACCESS:          0  dtHIT:          0  dtMISS:          0
cpu0_L1D PREFETCH     ACCESS:   12100491  HIT:   10775918  MISS:    1324573  iACCESS:          0  iHIT:          0  iMISS:          0  dACCESS:   12100491  dHIT:   10775918  dMISS:    1324573  itACCESS:          0  itHIT:          0  itMISS:          0  dtACCESS:          0  dtHIT:          0  dtMISS:          0
cpu0_L1D WRITE        ACCESS:   10176671  HIT:    9754698  MISS:     421973  iACCESS:          0  iHIT:          0  iMISS:          0  dACCESS:   10176671  dHIT:    9754698  dMISS:     421973  itACCESS:          0  itHIT:          0  itMISS:          0  dtACCESS:          0  dtHIT:          0  dtMISS:          0
cpu0_L1D TRANSLATION  ACCESS:     227619  HIT:      20150  MISS:     207469  iACCESS:          0  iHIT:          0  iMISS:          0  dACCESS:          0  dHIT:          0  dMISS:          0  itACCESS:      63920  itHIT:       9270  itMISS:      54650  dtACCESS:     163699  dtHIT:      10880  dtMISS:     152819
cpu0_L1D PREFETCH  REQUESTED:   19052298  ISSUED:   16900744  CROSSED:          0  USEFUL:     308820  USELESS:     699038
cpu0_L1D AVERAGE iMISS LATENCY: 0 cycles
cpu0_L1D AVERAGE dMISS LATENCY: 34.1735 cycles
cpu0_L1D AVERAGE itMISS LATENCY: 0.762322 cycles
cpu0_L1D AVERAGE dtMISS LATENCY: 2.48902 cycles
cpu0_L1D PAGE CROSSINGS (TLB HIT):         0 
cpu0_L1D PAGE CROSSINGS (TLB MISS):         0 
cpu0_L1D AVERAGE MISS LATENCY: 37.4248 cycles
cpu0_L2C TOTAL       ACCESS:    7014827  HIT:    1698106  MISS:    5316721  iACCESS:    3310232  iHIT:     869953  iMISS:    2440279  dACCESS:    3504457  dHIT:     713506  dMISS:    2790951  itACCESS:      54650  itHIT:      38342  itMISS:      16308  dtACCESS:     145488  dtHIT:      76305  dtMISS:      69183
cpu0_L2C LOAD         ACCESS:    1703526  HIT:     300012  MISS:    1403514  iACCESS:     779014  iHIT:     147654  iMISS:     631360  dACCESS:     924512  dHIT:     152358  dMISS:     772154  itACCESS:          0  itHIT:          0  itMISS:          0  dtACCESS:          0  dtHIT:          0  dtMISS:          0
cpu0_L2C RFO          ACCESS:     159063  HIT:      51011  MISS:     108052  iACCESS:          0  iHIT:          0  iMISS:          0  dACCESS:     159063  dHIT:      51011  dMISS:     108052  itACCESS:          0  itHIT:          0  itMISS:          0  dtACCESS:          0  dtHIT:          0  dtMISS:          0
cpu0_L2C PREFETCH     ACCESS:    4671409  HIT:    1098774  MISS:    3572635  iACCESS:    2531218  iHIT:     722299  iMISS:    1808919  dACCESS:    2140191  dHIT:     376475  dMISS:    1763716  itACCESS:          0  itHIT:          0  itMISS:          0  dtACCESS:          0  dtHIT:          0  dtMISS:          0
cpu0_L2C WRITE        ACCESS:     280691  HIT:     133662  MISS:     147029  iACCESS:          0  iHIT:          0  iMISS:          0  dACCESS:     280691  dHIT:     133662  dMISS:     147029  itACCESS:          0  itHIT:          0  itMISS:          0  dtACCESS:          0  dtHIT:          0  dtMISS:          0
cpu0_L2C TRANSLATION  ACCESS:     200138  HIT:     114647  MISS:      85491  iACCESS:          0  iHIT:          0  iMISS:          0  dACCESS:          0  dHIT:          0  dMISS:          0  itACCESS:      54650  itHIT:      38342  itMISS:      16308  dtACCESS:     145488  dtHIT:      76305  dtMISS:      69183
cpu0_L2C PREFETCH  REQUESTED:    1395816  ISSUED:    1395816  CROSSED:          0  USEFUL:     414250  USELESS:     379819
cpu0_L2C AVERAGE iMISS LATENCY: 15.3266 cycles
cpu0_L2C AVERAGE dMISS LATENCY: 25.7015 cycles
cpu0_L2C AVERAGE itMISS LATENCY: 0.39425 cycles
cpu0_L2C AVERAGE dtMISS LATENCY: 1.33934 cycles
cpu0_L2C PAGE CROSSINGS (TLB HIT):         0 
cpu0_L2C PAGE CROSSINGS (TLB MISS):         0 
cpu0_L2C AVERAGE MISS LATENCY: 42.7617 cycles
LLC TOTAL       ACCESS:    5193223  HIT:    4346687  MISS:     846536  iACCESS:    2383043  iHIT:    2135102  iMISS:     247941  dACCESS:    2724689  dHIT:    2169221  dMISS:     555468  itACCESS:      16308  itHIT:       5980  itMISS:      10328  dtACCESS:      69183  dtHIT:      36384  dtMISS:      32799
LLC LOAD         ACCESS:    1401567  HIT:    1218757  MISS:     182810  iACCESS:     629774  iHIT:     578397  iMISS:      51377  dACCESS:     771793  dHIT:     640360  dMISS:     131433  itACCESS:          0  itHIT:          0  itMISS:          0  dtACCESS:          0  dtHIT:          0  dtMISS:          0
LLC RFO          ACCESS:     108051  HIT:      70053  MISS:      37998  iACCESS:          0  iHIT:          0  iMISS:          0  dACCESS:     108051  dHIT:      70053  dMISS:      37998  itACCESS:          0  itHIT:          0  itMISS:          0  dtACCESS:          0  dtHIT:          0  dtMISS:          0
LLC PREFETCH     ACCESS:    3461937  HIT:    2888204  MISS:     573733  iACCESS:    1753269  iHIT:    1556705  iMISS:     196564  dACCESS:    1708668  dHIT:    1331499  dMISS:     377169  itACCESS:          0  itHIT:          0  itMISS:          0  dtACCESS:          0  dtHIT:          0  dtMISS:          0
LLC WRITE        ACCESS:     136177  HIT:     127309  MISS:       8868  iACCESS:          0  iHIT:          0  iMISS:          0  dACCESS:     136177  dHIT:     127309  dMISS:       8868  itACCESS:          0  itHIT:          0  itMISS:          0  dtACCESS:          0  dtHIT:          0  dtMISS:          0
LLC TRANSLATION  ACCESS:      85491  HIT:      42364  MISS:      43127  iACCESS:          0  iHIT:          0  iMISS:          0  dACCESS:          0  dHIT:          0  dMISS:          0  itACCESS:      16308  itHIT:       5980  itMISS:      10328  dtACCESS:      69183  dtHIT:      36384  dtMISS:      32799
LLC PREFETCH  REQUESTED:          0  ISSUED:          0  CROSSED:          0  USEFUL:          0  USELESS:          0
LLC AVERAGE iMISS LATENCY: 41.9226 cycles
LLC AVERAGE dMISS LATENCY: 102.351 cycles
LLC AVERAGE itMISS LATENCY: 2.09866 cycles
LLC AVERAGE dtMISS LATENCY: 6.82169 cycles
LLC PAGE CROSSINGS (TLB HIT):         0 
LLC PAGE CROSSINGS (TLB MISS):         0 
LLC AVERAGE MISS LATENCY: 153.194 cycles

PageTableWalker TOTAL       ACCESS:      84487  
PageTableWalker AVERAGE LATENCY: 4.5561 cycles
PageTableWalker TOTAL LATENCY: 384931 cycles

DRAM Statistics
Channel 0
 RQ ROW_BUFFER_HIT:     250934
  ROW_BUFFER_MISS:     586696
 AVG DBUS CONGESTED CYCLE:    3.62868
 WQ ROW_BUFFER_HIT:      16082
  ROW_BUFFER_MISS:      21066  FULL:          0

