last_page:0x200000000000000
VMEM_RES_CAP:0x100000
PAGE_SIZE:4096
LOG2_PAGE_SIZE:12
LOG2_PAGE_TABLE_SIZE:9
page_table_levels:5
WARNING: physical memory size is smaller than virtual memory size
FDiP enabled with aggresivity 16

*** ChampSim Multicore Out-of-Order Simulator ***

Warmup Instructions: 50000000
Simulation Instructions: 100000000
Number of CPUs: 1
Small page size: 4096
Large page size: 2097152

CPU 0 Bimodal branch predictor
Basic BTB sets: 1024 ways: 8 indirect buffer size: 4096 RAS size: 64
Instruction page size distrubution: 0
Loading instruction page size distribution from /home/bsc/bsc018186/scratch/itp_asplos25_AE/dump/srv483_ap.pdst
Data page size distrubution: 0
Loading data page size distribution from /home/bsc/bsc018186/scratch/itp_asplos25_AE/dump/srv483_ap.pdst
cpu0_L2C IP-based stride prefetcher
cpu0_L1D next line prefetcher
cpu0_STLB using iTP with max lru@8
cpu0_STLB using iTP with instr@0 and data@2
Init sat counter with 3 bits (max:50).
cpu0_L1I next line prefetcher
Off-chip DRAM Size: 4 GiB Channels: 1 Width: 64-bit Data Rate: 3200 MT/s
Heartbeat CPU 0 instructions: 10000001 cycles: 2500089 heartbeat IPC: 3.99986 cumulative IPC: 3.99986 (Simulation time: 0 hr 0 min 37 sec) 
Heartbeat CPU 0 instructions: 20000001 cycles: 5000089 heartbeat IPC: 4 cumulative IPC: 3.99993 (Simulation time: 0 hr 1 min 16 sec) 
Heartbeat CPU 0 instructions: 30000003 cycles: 7500118 heartbeat IPC: 3.99996 cumulative IPC: 3.99994 (Simulation time: 0 hr 1 min 55 sec) 
Heartbeat CPU 0 instructions: 40000000 cycles: 10000188 heartbeat IPC: 3.99989 cumulative IPC: 3.99993 (Simulation time: 0 hr 2 min 35 sec) 
Heartbeat CPU 0 instructions: 50000003 cycles: 12500240 heartbeat IPC: 3.99992 cumulative IPC: 3.99993 (Simulation time: 0 hr 3 min 16 sec) 
Warmup finished CPU 0 instructions: 50000003 cycles: 12500241 cumulative IPC: 3.99993 (Simulation time: 0 hr 3 min 16 sec) 

Warmup complete CPU 0 instructions: 50000003 cycles: 12500241 (Simulation time: 0 hr 3 min 16 sec) 

Heartbeat CPU 0 instructions: 60000003 cycles: 26950154 heartbeat IPC: 0.692046 cumulative IPC: 0.692046 (Simulation time: 0 hr 4 min 20 sec) 
Heartbeat CPU 0 instructions: 70000002 cycles: 40511265 heartbeat IPC: 0.737403 cumulative IPC: 0.714005 (Simulation time: 0 hr 5 min 23 sec) 
Heartbeat CPU 0 instructions: 80000003 cycles: 55545450 heartbeat IPC: 0.665151 cumulative IPC: 0.696942 (Simulation time: 0 hr 6 min 30 sec) 
Heartbeat CPU 0 instructions: 90000000 cycles: 70813264 heartbeat IPC: 0.654973 cumulative IPC: 0.685954 (Simulation time: 0 hr 7 min 37 sec) 
Heartbeat CPU 0 instructions: 100000004 cycles: 85736327 heartbeat IPC: 0.670104 cumulative IPC: 0.682724 (Simulation time: 0 hr 8 min 43 sec) 
*** Reached end of trace: /gpfs/projects/bsc18/MN4/bsc18/romol/ChampSim/traces/qualcomm_srv/srv483_ap.champsimtrace.xz
Heartbeat CPU 0 instructions: 110000000 cycles: 99527524 heartbeat IPC: 0.7251 cumulative IPC: 0.689439 (Simulation time: 0 hr 9 min 48 sec) 
Heartbeat CPU 0 instructions: 120000003 cycles: 113683132 heartbeat IPC: 0.706435 cumulative IPC: 0.691817 (Simulation time: 0 hr 10 min 53 sec) 
Heartbeat CPU 0 instructions: 130000000 cycles: 128069422 heartbeat IPC: 0.695107 cumulative IPC: 0.692227 (Simulation time: 0 hr 11 min 58 sec) 
Heartbeat CPU 0 instructions: 140000001 cycles: 141677777 heartbeat IPC: 0.734843 cumulative IPC: 0.696716 (Simulation time: 0 hr 13 min 3 sec) 
Heartbeat CPU 0 instructions: 150000002 cycles: 155143161 heartbeat IPC: 0.742646 cumulative IPC: 0.701052 (Simulation time: 0 hr 14 min 7 sec) 
Simulation finished CPU 0 instructions: 100000000 cycles: 142642935 cumulative IPC: 0.701052 (Simulation time: 0 hr 14 min 7 sec) 

Simulation complete CPU 0 instructions: 100000000 cycles: 142642935 (Simulation time: 0 hr 14 min 7 sec) 


ChampSim completed all CPUs

Saving instructions large page distribution to /home/bsc/bsc018186/scratch/itp_asplos25_AE/dump/srv483_ap.pdst...
Saving data large page distribution to /home/bsc/bsc018186/scratch/itp_asplos25_AE/dump/srv483_ap.pdst...
=== Simulation ===
CPU 0 runs /gpfs/projects/bsc18/MN4/bsc18/romol/ChampSim/traces/qualcomm_srv/srv483_ap.champsimtrace.xz

Region of Interest Statistics

CPU 0 cumulative IPC: 0.701052 instructions: 100000000 cycles: 142642935
CPU 0 Branch Prediction Accuracy: 82.7754% MPKI: 30.8281 Average ROB Occupancy at Mispredict: 12.0668
Branch type MPKI
BRANCH_DIRECT_JUMP: 1.03753
BRANCH_INDIRECT: 15.8271
BRANCH_CONDITIONAL: 10.2134
BRANCH_DIRECT_CALL: 1.87908
BRANCH_INDIRECT_CALL: 0.525871
BRANCH_RETURN: 1.34522

Instructions large pages: 0
Instructions small pages: 967
Large page distribution for instructions: 0%

Data large pages: 0
Data small pages: 9709
Large page distribution for data: 0%

cpu0_L1I TOTAL       ACCESS:   35680016  HIT:   27182801  MISS:    8497215  iACCESS:   35680016  iHIT:   27182801  iMISS:    8497215  dACCESS:          0  dHIT:          0  dMISS:          0  itACCESS:          0  itHIT:          0  itMISS:          0  dtACCESS:          0  dtHIT:          0  dtMISS:          0
cpu0_L1I LOAD         ACCESS:   10473259  HIT:    8092749  MISS:    2380510  iACCESS:   10473259  iHIT:    8092749  iMISS:    2380510  dACCESS:          0  dHIT:          0  dMISS:          0  itACCESS:          0  itHIT:          0  itMISS:          0  dtACCESS:          0  dtHIT:          0  dtMISS:          0
cpu0_L1I RFO          ACCESS:          0  HIT:          0  MISS:          0  iACCESS:          0  iHIT:          0  iMISS:          0  dACCESS:          0  dHIT:          0  dMISS:          0  itACCESS:          0  itHIT:          0  itMISS:          0  dtACCESS:          0  dtHIT:          0  dtMISS:          0
cpu0_L1I PREFETCH     ACCESS:   25206757  HIT:   19090052  MISS:    6116705  iACCESS:   25206757  iHIT:   19090052  iMISS:    6116705  dACCESS:          0  dHIT:          0  dMISS:          0  itACCESS:          0  itHIT:          0  itMISS:          0  dtACCESS:          0  dtHIT:          0  dtMISS:          0
cpu0_L1I WRITE        ACCESS:          0  HIT:          0  MISS:          0  iACCESS:          0  iHIT:          0  iMISS:          0  dACCESS:          0  dHIT:          0  dMISS:          0  itACCESS:          0  itHIT:          0  itMISS:          0  dtACCESS:          0  dtHIT:          0  dtMISS:          0
cpu0_L1I TRANSLATION  ACCESS:          0  HIT:          0  MISS:          0  iACCESS:          0  iHIT:          0  iMISS:          0  dACCESS:          0  dHIT:          0  dMISS:          0  itACCESS:          0  itHIT:          0  itMISS:          0  dtACCESS:          0  dtHIT:          0  dtMISS:          0
cpu0_L1I PREFETCH  REQUESTED:   27539611  ISSUED:   27538423  CROSSED:          0  USEFUL:    1966672  USELESS:     639644
cpu0_L1I AVERAGE iMISS LATENCY: 13.2285 cycles
cpu0_L1I AVERAGE dMISS LATENCY: 0 cycles
cpu0_L1I AVERAGE itMISS LATENCY: 0 cycles
cpu0_L1I AVERAGE dtMISS LATENCY: 0 cycles
cpu0_L1I PAGE CROSSINGS (TLB HIT):         0 
cpu0_L1I PAGE CROSSINGS (TLB MISS):         0 
cpu0_L1I AVERAGE MISS LATENCY: 13.2285 cycles
cpu0_ITLB TOTAL       ACCESS:   29554038  HIT:   27594769  MISS:    1959269  iACCESS:   29554038  iHIT:   27594769  iMISS:    1959269  dACCESS:          0  dHIT:          0  dMISS:          0  itACCESS:          0  itHIT:          0  itMISS:          0  dtACCESS:          0  dtHIT:          0  dtMISS:          0
cpu0_ITLB LOAD         ACCESS:   29554038  HIT:   27594769  MISS:    1959269  iACCESS:   29554038  iHIT:   27594769  iMISS:    1959269  dACCESS:          0  dHIT:          0  dMISS:          0  itACCESS:          0  itHIT:          0  itMISS:          0  dtACCESS:          0  dtHIT:          0  dtMISS:          0
cpu0_ITLB RFO          ACCESS:          0  HIT:          0  MISS:          0  iACCESS:          0  iHIT:          0  iMISS:          0  dACCESS:          0  dHIT:          0  dMISS:          0  itACCESS:          0  itHIT:          0  itMISS:          0  dtACCESS:          0  dtHIT:          0  dtMISS:          0
cpu0_ITLB PREFETCH     ACCESS:          0  HIT:          0  MISS:          0  iACCESS:          0  iHIT:          0  iMISS:          0  dACCESS:          0  dHIT:          0  dMISS:          0  itACCESS:          0  itHIT:          0  itMISS:          0  dtACCESS:          0  dtHIT:          0  dtMISS:          0
cpu0_ITLB WRITE        ACCESS:          0  HIT:          0  MISS:          0  iACCESS:          0  iHIT:          0  iMISS:          0  dACCESS:          0  dHIT:          0  dMISS:          0  itACCESS:          0  itHIT:          0  itMISS:          0  dtACCESS:          0  dtHIT:          0  dtMISS:          0
cpu0_ITLB TRANSLATION  ACCESS:          0  HIT:          0  MISS:          0  iACCESS:          0  iHIT:          0  iMISS:          0  dACCESS:          0  dHIT:          0  dMISS:          0  itACCESS:          0  itHIT:          0  itMISS:          0  dtACCESS:          0  dtHIT:          0  dtMISS:          0
cpu0_ITLB PREFETCH  REQUESTED:          0  ISSUED:          0  CROSSED:          0  USEFUL:     320447  USELESS:      64787
cpu0_ITLB AVERAGE iMISS LATENCY: 2.01623 cycles
cpu0_ITLB AVERAGE dMISS LATENCY: 0 cycles
cpu0_ITLB AVERAGE itMISS LATENCY: 0 cycles
cpu0_ITLB AVERAGE dtMISS LATENCY: 0 cycles
cpu0_ITLB PAGE CROSSINGS (TLB HIT):         0 
cpu0_ITLB PAGE CROSSINGS (TLB MISS):         0 
cpu0_ITLB AVERAGE MISS LATENCY: 2.01623 cycles
cpu0_DTLB TOTAL       ACCESS:   27754275  HIT:   25903177  MISS:    1851098  iACCESS:          0  iHIT:          0  iMISS:          0  dACCESS:   27754275  dHIT:   25903177  dMISS:    1851098  itACCESS:          0  itHIT:          0  itMISS:          0  dtACCESS:          0  dtHIT:          0  dtMISS:          0
cpu0_DTLB LOAD         ACCESS:   27754275  HIT:   25903177  MISS:    1851098  iACCESS:          0  iHIT:          0  iMISS:          0  dACCESS:   27754275  dHIT:   25903177  dMISS:    1851098  itACCESS:          0  itHIT:          0  itMISS:          0  dtACCESS:          0  dtHIT:          0  dtMISS:          0
cpu0_DTLB RFO          ACCESS:          0  HIT:          0  MISS:          0  iACCESS:          0  iHIT:          0  iMISS:          0  dACCESS:          0  dHIT:          0  dMISS:          0  itACCESS:          0  itHIT:          0  itMISS:          0  dtACCESS:          0  dtHIT:          0  dtMISS:          0
cpu0_DTLB PREFETCH     ACCESS:          0  HIT:          0  MISS:          0  iACCESS:          0  iHIT:          0  iMISS:          0  dACCESS:          0  dHIT:          0  dMISS:          0  itACCESS:          0  itHIT:          0  itMISS:          0  dtACCESS:          0  dtHIT:          0  dtMISS:          0
cpu0_DTLB WRITE        ACCESS:          0  HIT:          0  MISS:          0  iACCESS:          0  iHIT:          0  iMISS:          0  dACCESS:          0  dHIT:          0  dMISS:          0  itACCESS:          0  itHIT:          0  itMISS:          0  dtACCESS:          0  dtHIT:          0  dtMISS:          0
cpu0_DTLB TRANSLATION  ACCESS:          0  HIT:          0  MISS:          0  iACCESS:          0  iHIT:          0  iMISS:          0  dACCESS:          0  dHIT:          0  dMISS:          0  itACCESS:          0  itHIT:          0  itMISS:          0  dtACCESS:          0  dtHIT:          0  dtMISS:          0
cpu0_DTLB PREFETCH  REQUESTED:          0  ISSUED:          0  CROSSED:          0  USEFUL:          0  USELESS:          0
cpu0_DTLB AVERAGE iMISS LATENCY: 0 cycles
cpu0_DTLB AVERAGE dMISS LATENCY: 12.0448 cycles
cpu0_DTLB AVERAGE itMISS LATENCY: 0 cycles
cpu0_DTLB AVERAGE dtMISS LATENCY: 0 cycles
cpu0_DTLB PAGE CROSSINGS (TLB HIT):         0 
cpu0_DTLB PAGE CROSSINGS (TLB MISS):         0 
cpu0_DTLB AVERAGE MISS LATENCY: 12.0448 cycles
cpu0_STLB TOTAL       ACCESS:    1525789  HIT:    1381845  MISS:     143944  iACCESS:     385251  iHIT:     375093  iMISS:      10158  dACCESS:    1140538  dHIT:    1006752  dMISS:     133786  itACCESS:          0  itHIT:          0  itMISS:          0  dtACCESS:          0  dtHIT:          0  dtMISS:          0
cpu0_STLB LOAD         ACCESS:    1525789  HIT:    1381845  MISS:     143944  iACCESS:     385251  iHIT:     375093  iMISS:      10158  dACCESS:    1140538  dHIT:    1006752  dMISS:     133786  itACCESS:          0  itHIT:          0  itMISS:          0  dtACCESS:          0  dtHIT:          0  dtMISS:          0
cpu0_STLB RFO          ACCESS:          0  HIT:          0  MISS:          0  iACCESS:          0  iHIT:          0  iMISS:          0  dACCESS:          0  dHIT:          0  dMISS:          0  itACCESS:          0  itHIT:          0  itMISS:          0  dtACCESS:          0  dtHIT:          0  dtMISS:          0
cpu0_STLB PREFETCH     ACCESS:          0  HIT:          0  MISS:          0  iACCESS:          0  iHIT:          0  iMISS:          0  dACCESS:          0  dHIT:          0  dMISS:          0  itACCESS:          0  itHIT:          0  itMISS:          0  dtACCESS:          0  dtHIT:          0  dtMISS:          0
cpu0_STLB WRITE        ACCESS:          0  HIT:          0  MISS:          0  iACCESS:          0  iHIT:          0  iMISS:          0  dACCESS:          0  dHIT:          0  dMISS:          0  itACCESS:          0  itHIT:          0  itMISS:          0  dtACCESS:          0  dtHIT:          0  dtMISS:          0
cpu0_STLB TRANSLATION  ACCESS:          0  HIT:          0  MISS:          0  iACCESS:          0  iHIT:          0  iMISS:          0  dACCESS:          0  dHIT:          0  dMISS:          0  itACCESS:          0  itHIT:          0  itMISS:          0  dtACCESS:          0  dtHIT:          0  dtMISS:          0
cpu0_STLB PREFETCH  REQUESTED:          0  ISSUED:          0  CROSSED:          0  USEFUL:          0  USELESS:          0
cpu0_STLB AVERAGE iMISS LATENCY: 6.67941 cycles
cpu0_STLB AVERAGE dMISS LATENCY: 91.5558 cycles
cpu0_STLB AVERAGE itMISS LATENCY: 0 cycles
cpu0_STLB AVERAGE dtMISS LATENCY: 0 cycles
cpu0_STLB PAGE CROSSINGS (TLB HIT):         0 
cpu0_STLB PAGE CROSSINGS (TLB MISS):         0 
cpu0_STLB AVERAGE MISS LATENCY: 98.2352 cycles
cpu0_L1D TOTAL       ACCESS:   41531605  HIT:   38071488  MISS:    3460117  iACCESS:          0  iHIT:          0  iMISS:          0  dACCESS:   41321900  dHIT:   38057989  dMISS:    3263911  itACCESS:      11733  itHIT:       1203  itMISS:      10530  dtACCESS:     197972  dtHIT:      12296  dtMISS:     185676
cpu0_L1D LOAD         ACCESS:   18984149  HIT:   17486223  MISS:    1497926  iACCESS:          0  iHIT:          0  iMISS:          0  dACCESS:   18984149  dHIT:   17486223  dMISS:    1497926  itACCESS:          0  itHIT:          0  itMISS:          0  dtACCESS:          0  dtHIT:          0  dtMISS:          0
cpu0_L1D RFO          ACCESS:          0  HIT:          0  MISS:          0  iACCESS:          0  iHIT:          0  iMISS:          0  dACCESS:          0  dHIT:          0  dMISS:          0  itACCESS:          0  itHIT:          0  itMISS:          0  dtACCESS:          0  dtHIT:          0  dtMISS:          0
cpu0_L1D PREFETCH     ACCESS:   12166324  HIT:   10814293  MISS:    1352031  iACCESS:          0  iHIT:          0  iMISS:          0  dACCESS:   12166324  dHIT:   10814293  dMISS:    1352031  itACCESS:          0  itHIT:          0  itMISS:          0  dtACCESS:          0  dtHIT:          0  dtMISS:          0
cpu0_L1D WRITE        ACCESS:   10171427  HIT:    9757473  MISS:     413954  iACCESS:          0  iHIT:          0  iMISS:          0  dACCESS:   10171427  dHIT:    9757473  dMISS:     413954  itACCESS:          0  itHIT:          0  itMISS:          0  dtACCESS:          0  dtHIT:          0  dtMISS:          0
cpu0_L1D TRANSLATION  ACCESS:     209705  HIT:      13499  MISS:     196206  iACCESS:          0  iHIT:          0  iMISS:          0  dACCESS:          0  dHIT:          0  dMISS:          0  itACCESS:      11733  itHIT:       1203  itMISS:      10530  dtACCESS:     197972  dtHIT:      12296  dtMISS:     185676
cpu0_L1D PREFETCH  REQUESTED:   18984149  ISSUED:   16976586  CROSSED:          0  USEFUL:     306987  USELESS:     705927
cpu0_L1D AVERAGE iMISS LATENCY: 0 cycles
cpu0_L1D AVERAGE dMISS LATENCY: 33.6912 cycles
cpu0_L1D AVERAGE itMISS LATENCY: 0.246523 cycles
cpu0_L1D AVERAGE dtMISS LATENCY: 3.00289 cycles
cpu0_L1D PAGE CROSSINGS (TLB HIT):         0 
cpu0_L1D PAGE CROSSINGS (TLB MISS):         0 
cpu0_L1D AVERAGE MISS LATENCY: 36.9407 cycles
cpu0_L2C TOTAL       ACCESS:    7071018  HIT:    1807539  MISS:    5263479  iACCESS:    3361959  iHIT:     983087  iMISS:    2378872  dACCESS:    3520459  dHIT:     724705  dMISS:    2795754  itACCESS:      10530  itHIT:       5211  itMISS:       5319  dtACCESS:     178070  dtHIT:      94536  dtMISS:      83534
cpu0_L2C LOAD         ACCESS:    1730005  HIT:     335955  MISS:    1394050  iACCESS:     794135  iHIT:     181537  iMISS:     612598  dACCESS:     935870  dHIT:     154418  dMISS:     781452  itACCESS:          0  itHIT:          0  itMISS:          0  dtACCESS:          0  dtHIT:          0  dtMISS:          0
cpu0_L2C RFO          ACCESS:     158986  HIT:      53777  MISS:     105209  iACCESS:          0  iHIT:          0  iMISS:          0  dACCESS:     158986  dHIT:      53777  dMISS:     105209  itACCESS:          0  itHIT:          0  itMISS:          0  dtACCESS:          0  dtHIT:          0  dtMISS:          0
cpu0_L2C PREFETCH     ACCESS:    4708936  HIT:    1179939  MISS:    3528997  iACCESS:    2567824  iHIT:     801550  iMISS:    1766274  dACCESS:    2141112  dHIT:     378389  dMISS:    1762723  itACCESS:          0  itHIT:          0  itMISS:          0  dtACCESS:          0  dtHIT:          0  dtMISS:          0
cpu0_L2C WRITE        ACCESS:     284491  HIT:     138121  MISS:     146370  iACCESS:          0  iHIT:          0  iMISS:          0  dACCESS:     284491  dHIT:     138121  dMISS:     146370  itACCESS:          0  itHIT:          0  itMISS:          0  dtACCESS:          0  dtHIT:          0  dtMISS:          0
cpu0_L2C TRANSLATION  ACCESS:     188600  HIT:      99747  MISS:      88853  iACCESS:          0  iHIT:          0  iMISS:          0  dACCESS:          0  dHIT:          0  dMISS:          0  itACCESS:      10530  itHIT:       5211  itMISS:       5319  dtACCESS:     178070  dtHIT:      94536  dtMISS:      83534
cpu0_L2C PREFETCH  REQUESTED:    1391855  ISSUED:    1391855  CROSSED:          0  USEFUL:     408494  USELESS:     378369
cpu0_L2C AVERAGE iMISS LATENCY: 15.3436 cycles
cpu0_L2C AVERAGE dMISS LATENCY: 26.0785 cycles
cpu0_L2C AVERAGE itMISS LATENCY: 0.142986 cycles
cpu0_L2C AVERAGE dtMISS LATENCY: 1.65179 cycles
cpu0_L2C PAGE CROSSINGS (TLB HIT):         0 
cpu0_L2C PAGE CROSSINGS (TLB MISS):         0 
cpu0_L2C AVERAGE MISS LATENCY: 43.2168 cycles
LLC TOTAL       ACCESS:    5134471  HIT:    4291207  MISS:     843264  iACCESS:    2320454  iHIT:    2072014  iMISS:     248440  dACCESS:    2725164  dHIT:    2174336  dMISS:     550828  itACCESS:       5319  itHIT:       1592  itMISS:       3727  dtACCESS:      83534  dtHIT:      43265  dtMISS:      40269
LLC LOAD         ACCESS:    1391862  HIT:    1207831  MISS:     184031  iACCESS:     610956  iHIT:     556587  iMISS:      54369  dACCESS:     780906  dHIT:     651244  dMISS:     129662  itACCESS:          0  itHIT:          0  itMISS:          0  dtACCESS:          0  dtHIT:          0  dtMISS:          0
LLC RFO          ACCESS:     105209  HIT:      70715  MISS:      34494  iACCESS:          0  iHIT:          0  iMISS:          0  dACCESS:     105209  dHIT:      70715  dMISS:      34494  itACCESS:          0  itHIT:          0  itMISS:          0  dtACCESS:          0  dtHIT:          0  dtMISS:          0
LLC PREFETCH     ACCESS:    3415560  HIT:    2843892  MISS:     571668  iACCESS:    1709498  iHIT:    1515427  iMISS:     194071  dACCESS:    1706062  dHIT:    1328465  dMISS:     377597  itACCESS:          0  itHIT:          0  itMISS:          0  dtACCESS:          0  dtHIT:          0  dtMISS:          0
LLC WRITE        ACCESS:     132987  HIT:     123912  MISS:       9075  iACCESS:          0  iHIT:          0  iMISS:          0  dACCESS:     132987  dHIT:     123912  dMISS:       9075  itACCESS:          0  itHIT:          0  itMISS:          0  dtACCESS:          0  dtHIT:          0  dtMISS:          0
LLC TRANSLATION  ACCESS:      88853  HIT:      44857  MISS:      43996  iACCESS:          0  iHIT:          0  iMISS:          0  dACCESS:          0  dHIT:          0  dMISS:          0  itACCESS:       5319  itHIT:       1592  itMISS:       3727  dtACCESS:      83534  dtHIT:      43265  dtMISS:      40269
LLC PREFETCH  REQUESTED:          0  ISSUED:          0  CROSSED:          0  USEFUL:          0  USELESS:          0
LLC AVERAGE iMISS LATENCY: 42.6479 cycles
LLC AVERAGE dMISS LATENCY: 103.476 cycles
LLC AVERAGE itMISS LATENCY: 0.768634 cycles
LLC AVERAGE dtMISS LATENCY: 8.38082 cycles
LLC PAGE CROSSINGS (TLB HIT):         0 
LLC PAGE CROSSINGS (TLB MISS):         0 
LLC AVERAGE MISS LATENCY: 155.274 cycles

PageTableWalker TOTAL       ACCESS:      68072  
PageTableWalker AVERAGE LATENCY: 5.04015 cycles
PageTableWalker TOTAL LATENCY: 343093 cycles

DRAM Statistics
Channel 0
 RQ ROW_BUFFER_HIT:     242967
  ROW_BUFFER_MISS:     591140
 AVG DBUS CONGESTED CYCLE:    3.62625
 WQ ROW_BUFFER_HIT:      15442
  ROW_BUFFER_MISS:      20991  FULL:          0

