last_page:0x200000000000000
VMEM_RES_CAP:0x100000
PAGE_SIZE:4096
LOG2_PAGE_SIZE:12
LOG2_PAGE_TABLE_SIZE:9
page_table_levels:5
WARNING: physical memory size is smaller than virtual memory size
FDiP enabled with aggresivity 16

*** ChampSim Multicore Out-of-Order Simulator ***

Warmup Instructions: 50000000
Simulation Instructions: 100000000
Number of CPUs: 1
Small page size: 4096
Large page size: 2097152

CPU 0 Bimodal branch predictor
Basic BTB sets: 1024 ways: 8 indirect buffer size: 4096 RAS size: 64
Instruction page size distrubution: 0
Loading instruction page size distribution from /home/bsc/bsc018186/scratch/itp_asplos25_AE/dump/srv44_ap.pdst
Data page size distrubution: 0
Loading data page size distribution from /home/bsc/bsc018186/scratch/itp_asplos25_AE/dump/srv44_ap.pdst
cpu0_L2C IP-based stride prefetcher
cpu0_L2C is using PTP replacement policy:
	TLB_STRESS_THRESHOLD:0
	PTE_EVICTION_RATIO:0
cpu0_L1D next line prefetcher
cpu0_STLB using iTP with max lru@8
cpu0_STLB using iTP with instr@0 and data@2
Init sat counter with 3 bits (max:50).
cpu0_L1I next line prefetcher
Off-chip DRAM Size: 4 GiB Channels: 1 Width: 64-bit Data Rate: 3200 MT/s
Heartbeat CPU 0 instructions: 10000001 cycles: 2500241 heartbeat IPC: 3.99962 cumulative IPC: 3.99962 (Simulation time: 0 hr 0 min 40 sec) 
Heartbeat CPU 0 instructions: 20000002 cycles: 5000256 heartbeat IPC: 3.99998 cumulative IPC: 3.9998 (Simulation time: 0 hr 1 min 20 sec) 
Heartbeat CPU 0 instructions: 30000003 cycles: 7500274 heartbeat IPC: 3.99998 cumulative IPC: 3.99986 (Simulation time: 0 hr 2 min 3 sec) 
Heartbeat CPU 0 instructions: 40000003 cycles: 10000297 heartbeat IPC: 3.99997 cumulative IPC: 3.99989 (Simulation time: 0 hr 2 min 46 sec) 
Heartbeat CPU 0 instructions: 50000000 cycles: 12500318 heartbeat IPC: 3.99997 cumulative IPC: 3.9999 (Simulation time: 0 hr 3 min 30 sec) 
Warmup finished CPU 0 instructions: 50000000 cycles: 12500319 cumulative IPC: 3.9999 (Simulation time: 0 hr 3 min 30 sec) 

Warmup complete CPU 0 instructions: 50000000 cycles: 12500319 (Simulation time: 0 hr 3 min 30 sec) 

Heartbeat CPU 0 instructions: 60000003 cycles: 28505108 heartbeat IPC: 0.624814 cumulative IPC: 0.624814 (Simulation time: 0 hr 4 min 40 sec) 
Heartbeat CPU 0 instructions: 70000000 cycles: 43686175 heartbeat IPC: 0.658716 cumulative IPC: 0.641317 (Simulation time: 0 hr 5 min 45 sec) 
Heartbeat CPU 0 instructions: 80000000 cycles: 58785956 heartbeat IPC: 0.662262 cumulative IPC: 0.64815 (Simulation time: 0 hr 6 min 55 sec) 
Heartbeat CPU 0 instructions: 90000002 cycles: 73273440 heartbeat IPC: 0.690252 cumulative IPC: 0.658186 (Simulation time: 0 hr 8 min 3 sec) 
Heartbeat CPU 0 instructions: 100000003 cycles: 88149845 heartbeat IPC: 0.672206 cumulative IPC: 0.660943 (Simulation time: 0 hr 9 min 10 sec) 
*** Reached end of trace: /gpfs/projects/bsc18/MN4/bsc18/romol/ChampSim/traces/qualcomm_srv/srv44_ap.champsimtrace.xz
Heartbeat CPU 0 instructions: 110000002 cycles: 103447955 heartbeat IPC: 0.653676 cumulative IPC: 0.659721 (Simulation time: 0 hr 10 min 18 sec) 
Heartbeat CPU 0 instructions: 120000000 cycles: 119410664 heartbeat IPC: 0.62646 cumulative IPC: 0.654755 (Simulation time: 0 hr 11 min 29 sec) 
Heartbeat CPU 0 instructions: 130000000 cycles: 133932517 heartbeat IPC: 0.688618 cumulative IPC: 0.658804 (Simulation time: 0 hr 12 min 38 sec) 
Heartbeat CPU 0 instructions: 140000001 cycles: 148081489 heartbeat IPC: 0.706766 cumulative IPC: 0.66381 (Simulation time: 0 hr 13 min 43 sec) 
Heartbeat CPU 0 instructions: 150000000 cycles: 163158774 heartbeat IPC: 0.66325 cumulative IPC: 0.663753 (Simulation time: 0 hr 14 min 51 sec) 
Simulation finished CPU 0 instructions: 100000000 cycles: 150658456 cumulative IPC: 0.663753 (Simulation time: 0 hr 14 min 51 sec) 

Simulation complete CPU 0 instructions: 100000000 cycles: 150658456 (Simulation time: 0 hr 14 min 51 sec) 


ChampSim completed all CPUs

Saving instructions large page distribution to /home/bsc/bsc018186/scratch/itp_asplos25_AE/dump/srv44_ap.pdst...
Saving data large page distribution to /home/bsc/bsc018186/scratch/itp_asplos25_AE/dump/srv44_ap.pdst...
=== Simulation ===
CPU 0 runs /gpfs/projects/bsc18/MN4/bsc18/romol/ChampSim/traces/qualcomm_srv/srv44_ap.champsimtrace.xz

Region of Interest Statistics

CPU 0 cumulative IPC: 0.663753 instructions: 100000000 cycles: 150658456
CPU 0 Branch Prediction Accuracy: 82.6949% MPKI: 31.0017 Average ROB Occupancy at Mispredict: 13.2682
Branch type MPKI
BRANCH_DIRECT_JUMP: 1.04266
BRANCH_INDIRECT: 15.9928
BRANCH_CONDITIONAL: 10.2125
BRANCH_DIRECT_CALL: 1.88785
BRANCH_INDIRECT_CALL: 0.515821
BRANCH_RETURN: 1.35008

Instructions large pages: 0
Instructions small pages: 962
Large page distribution for instructions: 0%

Data large pages: 0
Data small pages: 9382
Large page distribution for data: 0%

cpu0_L1I TOTAL       ACCESS:   35190886  HIT:   27346022  MISS:    7844864  iACCESS:   35190886  iHIT:   27346022  iMISS:    7844864  dACCESS:          0  dHIT:          0  dMISS:          0  itACCESS:          0  itHIT:          0  itMISS:          0  dtACCESS:          0  dtHIT:          0  dtMISS:          0
cpu0_L1I LOAD         ACCESS:   10329790  HIT:    8127242  MISS:    2202548  iACCESS:   10329790  iHIT:    8127242  iMISS:    2202548  dACCESS:          0  dHIT:          0  dMISS:          0  itACCESS:          0  itHIT:          0  itMISS:          0  dtACCESS:          0  dtHIT:          0  dtMISS:          0
cpu0_L1I RFO          ACCESS:          0  HIT:          0  MISS:          0  iACCESS:          0  iHIT:          0  iMISS:          0  dACCESS:          0  dHIT:          0  dMISS:          0  itACCESS:          0  itHIT:          0  itMISS:          0  dtACCESS:          0  dtHIT:          0  dtMISS:          0
cpu0_L1I PREFETCH     ACCESS:   24861096  HIT:   19218780  MISS:    5642316  iACCESS:   24861096  iHIT:   19218780  iMISS:    5642316  dACCESS:          0  dHIT:          0  dMISS:          0  itACCESS:          0  itHIT:          0  itMISS:          0  dtACCESS:          0  dtHIT:          0  dtMISS:          0
cpu0_L1I WRITE        ACCESS:          0  HIT:          0  MISS:          0  iACCESS:          0  iHIT:          0  iMISS:          0  dACCESS:          0  dHIT:          0  dMISS:          0  itACCESS:          0  itHIT:          0  itMISS:          0  dtACCESS:          0  dtHIT:          0  dtMISS:          0
cpu0_L1I TRANSLATION  ACCESS:          0  HIT:          0  MISS:          0  iACCESS:          0  iHIT:          0  iMISS:          0  dACCESS:          0  dHIT:          0  dMISS:          0  itACCESS:          0  itHIT:          0  itMISS:          0  dtACCESS:          0  dtHIT:          0  dtMISS:          0
cpu0_L1I PREFETCH  REQUESTED:   27402691  ISSUED:   27402691  CROSSED:          0  USEFUL:    1935438  USELESS:     627955
cpu0_L1I AVERAGE iMISS LATENCY: 12.5227 cycles
cpu0_L1I AVERAGE dMISS LATENCY: 0 cycles
cpu0_L1I AVERAGE itMISS LATENCY: 0 cycles
cpu0_L1I AVERAGE dtMISS LATENCY: 0 cycles
cpu0_L1I PAGE CROSSINGS (TLB HIT):         0 
cpu0_L1I PAGE CROSSINGS (TLB MISS):         0 
cpu0_L1I AVERAGE MISS LATENCY: 12.5227 cycles
cpu0_ITLB TOTAL       ACCESS:   29383996  HIT:   27443881  MISS:    1940115  iACCESS:   29383996  iHIT:   27443881  iMISS:    1940115  dACCESS:          0  dHIT:          0  dMISS:          0  itACCESS:          0  itHIT:          0  itMISS:          0  dtACCESS:          0  dtHIT:          0  dtMISS:          0
cpu0_ITLB LOAD         ACCESS:   29383996  HIT:   27443881  MISS:    1940115  iACCESS:   29383996  iHIT:   27443881  iMISS:    1940115  dACCESS:          0  dHIT:          0  dMISS:          0  itACCESS:          0  itHIT:          0  itMISS:          0  dtACCESS:          0  dtHIT:          0  dtMISS:          0
cpu0_ITLB RFO          ACCESS:          0  HIT:          0  MISS:          0  iACCESS:          0  iHIT:          0  iMISS:          0  dACCESS:          0  dHIT:          0  dMISS:          0  itACCESS:          0  itHIT:          0  itMISS:          0  dtACCESS:          0  dtHIT:          0  dtMISS:          0
cpu0_ITLB PREFETCH     ACCESS:          0  HIT:          0  MISS:          0  iACCESS:          0  iHIT:          0  iMISS:          0  dACCESS:          0  dHIT:          0  dMISS:          0  itACCESS:          0  itHIT:          0  itMISS:          0  dtACCESS:          0  dtHIT:          0  dtMISS:          0
cpu0_ITLB WRITE        ACCESS:          0  HIT:          0  MISS:          0  iACCESS:          0  iHIT:          0  iMISS:          0  dACCESS:          0  dHIT:          0  dMISS:          0  itACCESS:          0  itHIT:          0  itMISS:          0  dtACCESS:          0  dtHIT:          0  dtMISS:          0
cpu0_ITLB TRANSLATION  ACCESS:          0  HIT:          0  MISS:          0  iACCESS:          0  iHIT:          0  iMISS:          0  dACCESS:          0  dHIT:          0  dMISS:          0  itACCESS:          0  itHIT:          0  itMISS:          0  dtACCESS:          0  dtHIT:          0  dtMISS:          0
cpu0_ITLB PREFETCH  REQUESTED:          0  ISSUED:          0  CROSSED:          0  USEFUL:     316881  USELESS:      64118
cpu0_ITLB AVERAGE iMISS LATENCY: 2.21997 cycles
cpu0_ITLB AVERAGE dMISS LATENCY: 0 cycles
cpu0_ITLB AVERAGE itMISS LATENCY: 0 cycles
cpu0_ITLB AVERAGE dtMISS LATENCY: 0 cycles
cpu0_ITLB PAGE CROSSINGS (TLB HIT):         0 
cpu0_ITLB PAGE CROSSINGS (TLB MISS):         0 
cpu0_ITLB AVERAGE MISS LATENCY: 2.21997 cycles
cpu0_DTLB TOTAL       ACCESS:   27828736  HIT:   26023841  MISS:    1804895  iACCESS:          0  iHIT:          0  iMISS:          0  dACCESS:   27828736  dHIT:   26023841  dMISS:    1804895  itACCESS:          0  itHIT:          0  itMISS:          0  dtACCESS:          0  dtHIT:          0  dtMISS:          0
cpu0_DTLB LOAD         ACCESS:   27828736  HIT:   26023841  MISS:    1804895  iACCESS:          0  iHIT:          0  iMISS:          0  dACCESS:   27828736  dHIT:   26023841  dMISS:    1804895  itACCESS:          0  itHIT:          0  itMISS:          0  dtACCESS:          0  dtHIT:          0  dtMISS:          0
cpu0_DTLB RFO          ACCESS:          0  HIT:          0  MISS:          0  iACCESS:          0  iHIT:          0  iMISS:          0  dACCESS:          0  dHIT:          0  dMISS:          0  itACCESS:          0  itHIT:          0  itMISS:          0  dtACCESS:          0  dtHIT:          0  dtMISS:          0
cpu0_DTLB PREFETCH     ACCESS:          0  HIT:          0  MISS:          0  iACCESS:          0  iHIT:          0  iMISS:          0  dACCESS:          0  dHIT:          0  dMISS:          0  itACCESS:          0  itHIT:          0  itMISS:          0  dtACCESS:          0  dtHIT:          0  dtMISS:          0
cpu0_DTLB WRITE        ACCESS:          0  HIT:          0  MISS:          0  iACCESS:          0  iHIT:          0  iMISS:          0  dACCESS:          0  dHIT:          0  dMISS:          0  itACCESS:          0  itHIT:          0  itMISS:          0  dtACCESS:          0  dtHIT:          0  dtMISS:          0
cpu0_DTLB TRANSLATION  ACCESS:          0  HIT:          0  MISS:          0  iACCESS:          0  iHIT:          0  iMISS:          0  dACCESS:          0  dHIT:          0  dMISS:          0  itACCESS:          0  itHIT:          0  itMISS:          0  dtACCESS:          0  dtHIT:          0  dtMISS:          0
cpu0_DTLB PREFETCH  REQUESTED:          0  ISSUED:          0  CROSSED:          0  USEFUL:          0  USELESS:          0
cpu0_DTLB AVERAGE iMISS LATENCY: 0 cycles
cpu0_DTLB AVERAGE dMISS LATENCY: 17.9496 cycles
cpu0_DTLB AVERAGE itMISS LATENCY: 0 cycles
cpu0_DTLB AVERAGE dtMISS LATENCY: 0 cycles
cpu0_DTLB PAGE CROSSINGS (TLB HIT):         0 
cpu0_DTLB PAGE CROSSINGS (TLB MISS):         0 
cpu0_DTLB AVERAGE MISS LATENCY: 17.9496 cycles
cpu0_STLB TOTAL       ACCESS:    1465330  HIT:    1319440  MISS:     145890  iACCESS:     381004  iHIT:     372265  iMISS:       8739  dACCESS:    1084326  dHIT:     947175  dMISS:     137151  itACCESS:          0  itHIT:          0  itMISS:          0  dtACCESS:          0  dtHIT:          0  dtMISS:          0
cpu0_STLB LOAD         ACCESS:    1465330  HIT:    1319440  MISS:     145890  iACCESS:     381004  iHIT:     372265  iMISS:       8739  dACCESS:    1084326  dHIT:     947175  dMISS:     137151  itACCESS:          0  itHIT:          0  itMISS:          0  dtACCESS:          0  dtHIT:          0  dtMISS:          0
cpu0_STLB RFO          ACCESS:          0  HIT:          0  MISS:          0  iACCESS:          0  iHIT:          0  iMISS:          0  dACCESS:          0  dHIT:          0  dMISS:          0  itACCESS:          0  itHIT:          0  itMISS:          0  dtACCESS:          0  dtHIT:          0  dtMISS:          0
cpu0_STLB PREFETCH     ACCESS:          0  HIT:          0  MISS:          0  iACCESS:          0  iHIT:          0  iMISS:          0  dACCESS:          0  dHIT:          0  dMISS:          0  itACCESS:          0  itHIT:          0  itMISS:          0  dtACCESS:          0  dtHIT:          0  dtMISS:          0
cpu0_STLB WRITE        ACCESS:          0  HIT:          0  MISS:          0  iACCESS:          0  iHIT:          0  iMISS:          0  dACCESS:          0  dHIT:          0  dMISS:          0  itACCESS:          0  itHIT:          0  itMISS:          0  dtACCESS:          0  dtHIT:          0  dtMISS:          0
cpu0_STLB TRANSLATION  ACCESS:          0  HIT:          0  MISS:          0  iACCESS:          0  iHIT:          0  iMISS:          0  dACCESS:          0  dHIT:          0  dMISS:          0  itACCESS:          0  itHIT:          0  itMISS:          0  dtACCESS:          0  dtHIT:          0  dtMISS:          0
cpu0_STLB PREFETCH  REQUESTED:          0  ISSUED:          0  CROSSED:          0  USEFUL:          0  USELESS:          0
cpu0_STLB AVERAGE iMISS LATENCY: 9.27166 cycles
cpu0_STLB AVERAGE dMISS LATENCY: 162.568 cycles
cpu0_STLB AVERAGE itMISS LATENCY: 0 cycles
cpu0_STLB AVERAGE dtMISS LATENCY: 0 cycles
cpu0_STLB PAGE CROSSINGS (TLB HIT):         0 
cpu0_STLB PAGE CROSSINGS (TLB MISS):         0 
cpu0_STLB AVERAGE MISS LATENCY: 171.84 cycles
cpu0_L1D TOTAL       ACCESS:   41513691  HIT:   38095261  MISS:    3418430  iACCESS:          0  iHIT:          0  iMISS:          0  dACCESS:   41299967  dHIT:   38082248  dMISS:    3217719  itACCESS:      10291  itHIT:       1028  itMISS:       9263  dtACCESS:     203433  dtHIT:      11985  dtMISS:     191448
cpu0_L1D LOAD         ACCESS:   19032255  HIT:   17565481  MISS:    1466774  iACCESS:          0  iHIT:          0  iMISS:          0  dACCESS:   19032255  dHIT:   17565481  dMISS:    1466774  itACCESS:          0  itHIT:          0  itMISS:          0  dtACCESS:          0  dtHIT:          0  dtMISS:          0
cpu0_L1D RFO          ACCESS:          0  HIT:          0  MISS:          0  iACCESS:          0  iHIT:          0  iMISS:          0  dACCESS:          0  dHIT:          0  dMISS:          0  itACCESS:          0  itHIT:          0  itMISS:          0  dtACCESS:          0  dtHIT:          0  dtMISS:          0
cpu0_L1D PREFETCH     ACCESS:   12077294  HIT:   10757754  MISS:    1319540  iACCESS:          0  iHIT:          0  iMISS:          0  dACCESS:   12077294  dHIT:   10757754  dMISS:    1319540  itACCESS:          0  itHIT:          0  itMISS:          0  dtACCESS:          0  dtHIT:          0  dtMISS:          0
cpu0_L1D WRITE        ACCESS:   10190418  HIT:    9759013  MISS:     431405  iACCESS:          0  iHIT:          0  iMISS:          0  dACCESS:   10190418  dHIT:    9759013  dMISS:     431405  itACCESS:          0  itHIT:          0  itMISS:          0  dtACCESS:          0  dtHIT:          0  dtMISS:          0
cpu0_L1D TRANSLATION  ACCESS:     213724  HIT:      13013  MISS:     200711  iACCESS:          0  iHIT:          0  iMISS:          0  dACCESS:          0  dHIT:          0  dMISS:          0  itACCESS:      10291  itHIT:       1028  itMISS:       9263  dtACCESS:     203433  dtHIT:      11985  dtMISS:     191448
cpu0_L1D PREFETCH  REQUESTED:   19032255  ISSUED:   16870351  CROSSED:          0  USEFUL:     307062  USELESS:     698723
cpu0_L1D AVERAGE iMISS LATENCY: 0 cycles
cpu0_L1D AVERAGE dMISS LATENCY: 33.4121 cycles
cpu0_L1D AVERAGE itMISS LATENCY: 0.369985 cycles
cpu0_L1D AVERAGE dtMISS LATENCY: 6.17063 cycles
cpu0_L1D PAGE CROSSINGS (TLB HIT):         0 
cpu0_L1D PAGE CROSSINGS (TLB MISS):         0 
cpu0_L1D AVERAGE MISS LATENCY: 39.9527 cycles
cpu0_L2C TOTAL       ACCESS:    6992405  HIT:    4057509  MISS:    2934896  iACCESS:    3309580  iHIT:    2219816  iMISS:    1089764  dACCESS:    3491077  dHIT:    1805454  dMISS:    1685623  itACCESS:       9263  itHIT:       1532  itMISS:       7731  dtACCESS:     182485  dtHIT:      30707  dtMISS:     151778
cpu0_L2C LOAD         ACCESS:    1713252  HIT:    1033229  MISS:     680023  iACCESS:     786793  iHIT:     557653  iMISS:     229140  dACCESS:     926459  dHIT:     475576  dMISS:     450883  itACCESS:          0  itHIT:          0  itMISS:          0  dtACCESS:          0  dtHIT:          0  dtMISS:          0
cpu0_L2C RFO          ACCESS:     158322  HIT:      71266  MISS:      87056  iACCESS:          0  iHIT:          0  iMISS:          0  dACCESS:     158322  dHIT:      71266  dMISS:      87056  itACCESS:          0  itHIT:          0  itMISS:          0  dtACCESS:          0  dtHIT:          0  dtMISS:          0
cpu0_L2C PREFETCH     ACCESS:    4647728  HIT:    2641634  MISS:    2006094  iACCESS:    2522787  iHIT:    1662163  iMISS:     860624  dACCESS:    2124941  dHIT:     979471  dMISS:    1145470  itACCESS:          0  itHIT:          0  itMISS:          0  dtACCESS:          0  dtHIT:          0  dtMISS:          0
cpu0_L2C WRITE        ACCESS:     281355  HIT:     279141  MISS:       2214  iACCESS:          0  iHIT:          0  iMISS:          0  dACCESS:     281355  dHIT:     279141  dMISS:       2214  itACCESS:          0  itHIT:          0  itMISS:          0  dtACCESS:          0  dtHIT:          0  dtMISS:          0
cpu0_L2C TRANSLATION  ACCESS:     191748  HIT:      32239  MISS:     159509  iACCESS:          0  iHIT:          0  iMISS:          0  dACCESS:          0  dHIT:          0  dMISS:          0  itACCESS:       9263  itHIT:       1532  itMISS:       7731  dtACCESS:     182485  dtHIT:      30707  dtMISS:     151778
cpu0_L2C PREFETCH  REQUESTED:    1380983  ISSUED:    1380983  CROSSED:          0  USEFUL:     332625  USELESS:     231548
cpu0_L2C AVERAGE iMISS LATENCY: 23.3746 cycles
cpu0_L2C AVERAGE dMISS LATENCY: 45.4555 cycles
cpu0_L2C AVERAGE itMISS LATENCY: 0.399787 cycles
cpu0_L2C AVERAGE dtMISS LATENCY: 6.57124 cycles
cpu0_L2C PAGE CROSSINGS (TLB HIT):         0 
cpu0_L2C PAGE CROSSINGS (TLB MISS):         0 
cpu0_L2C AVERAGE MISS LATENCY: 75.8011 cycles
LLC TOTAL       ACCESS:    2962813  HIT:    1898784  MISS:    1064029  iACCESS:    1036003  iHIT:     704336  iMISS:     331667  dACCESS:    1767301  dHIT:    1132397  dMISS:     634904  itACCESS:       7731  itHIT:       1921  itMISS:       5810  dtACCESS:     151778  dtHIT:      60130  dtMISS:      91648
LLC LOAD         ACCESS:     678407  HIT:     444374  MISS:     234033  iACCESS:     227774  iHIT:     155437  iMISS:      72337  dACCESS:     450633  dHIT:     288937  dMISS:     161696  itACCESS:          0  itHIT:          0  itMISS:          0  dtACCESS:          0  dtHIT:          0  dtMISS:          0
LLC RFO          ACCESS:      87038  HIT:      48243  MISS:      38795  iACCESS:          0  iHIT:          0  iMISS:          0  dACCESS:      87038  dHIT:      48243  dMISS:      38795  itACCESS:          0  itHIT:          0  itMISS:          0  dtACCESS:          0  dtHIT:          0  dtMISS:          0
LLC PREFETCH     ACCESS:    1903724  HIT:    1217354  MISS:     686370  iACCESS:     808229  iHIT:     548899  iMISS:     259330  dACCESS:    1095495  dHIT:     668455  dMISS:     427040  itACCESS:          0  itHIT:          0  itMISS:          0  dtACCESS:          0  dtHIT:          0  dtMISS:          0
LLC WRITE        ACCESS:     134135  HIT:     126762  MISS:       7373  iACCESS:          0  iHIT:          0  iMISS:          0  dACCESS:     134135  dHIT:     126762  dMISS:       7373  itACCESS:          0  itHIT:          0  itMISS:          0  dtACCESS:          0  dtHIT:          0  dtMISS:          0
LLC TRANSLATION  ACCESS:     159509  HIT:      62051  MISS:      97458  iACCESS:          0  iHIT:          0  iMISS:          0  dACCESS:          0  dHIT:          0  dMISS:          0  itACCESS:       7731  itHIT:       1921  itMISS:       5810  dtACCESS:     151778  dtHIT:      60130  dtMISS:      91648
LLC PREFETCH  REQUESTED:          0  ISSUED:          0  CROSSED:          0  USEFUL:          0  USELESS:          0
LLC AVERAGE iMISS LATENCY: 45.565 cycles
LLC AVERAGE dMISS LATENCY: 95.6669 cycles
LLC AVERAGE itMISS LATENCY: 0.959701 cycles
LLC AVERAGE dtMISS LATENCY: 15.3356 cycles
LLC PAGE CROSSINGS (TLB HIT):         0 
LLC PAGE CROSSINGS (TLB MISS):         0 
LLC AVERAGE MISS LATENCY: 157.527 cycles

PageTableWalker TOTAL       ACCESS:      71604  
PageTableWalker AVERAGE LATENCY: 5.70913 cycles
PageTableWalker TOTAL LATENCY: 408796 cycles

DRAM Statistics
Channel 0
 RQ ROW_BUFFER_HIT:     286439
  ROW_BUFFER_MISS:     770124
 AVG DBUS CONGESTED CYCLE:    3.62211
 WQ ROW_BUFFER_HIT:      20608
  ROW_BUFFER_MISS:      20888  FULL:          0

