last_page:0x200000000000000
VMEM_RES_CAP:0x100000
PAGE_SIZE:4096
LOG2_PAGE_SIZE:12
LOG2_PAGE_TABLE_SIZE:9
page_table_levels:5
WARNING: physical memory size is smaller than virtual memory size
FDiP enabled with aggresivity 16

*** ChampSim Multicore Out-of-Order Simulator ***

Warmup Instructions: 50000000
Simulation Instructions: 100000000
Number of CPUs: 1
Small page size: 4096
Large page size: 2097152

CPU 0 Bimodal branch predictor
Basic BTB sets: 1024 ways: 8 indirect buffer size: 4096 RAS size: 64
Instruction page size distrubution: 0
Loading instruction page size distribution from /home/bsc/bsc018186/scratch/itp_asplos25_AE/dump/srv489_ap.pdst
Data page size distrubution: 0
Loading data page size distribution from /home/bsc/bsc018186/scratch/itp_asplos25_AE/dump/srv489_ap.pdst
cpu0_L2C IP-based stride prefetcher
cpu0_L2C is using PTP replacement policy:
	TLB_STRESS_THRESHOLD:0
	PTE_EVICTION_RATIO:0
cpu0_L1D next line prefetcher
cpu0_L1I next line prefetcher
Off-chip DRAM Size: 4 GiB Channels: 1 Width: 64-bit Data Rate: 3200 MT/s
Heartbeat CPU 0 instructions: 10000002 cycles: 2500191 heartbeat IPC: 3.9997 cumulative IPC: 3.9997 (Simulation time: 0 hr 0 min 37 sec) 
Heartbeat CPU 0 instructions: 20000001 cycles: 5000421 heartbeat IPC: 3.99964 cumulative IPC: 3.99967 (Simulation time: 0 hr 1 min 16 sec) 
Heartbeat CPU 0 instructions: 30000003 cycles: 7500617 heartbeat IPC: 3.99969 cumulative IPC: 3.99968 (Simulation time: 0 hr 1 min 56 sec) 
Heartbeat CPU 0 instructions: 40000003 cycles: 10000695 heartbeat IPC: 3.99988 cumulative IPC: 3.99973 (Simulation time: 0 hr 2 min 37 sec) 
Heartbeat CPU 0 instructions: 50000003 cycles: 12500699 heartbeat IPC: 4 cumulative IPC: 3.99978 (Simulation time: 0 hr 3 min 17 sec) 
Warmup finished CPU 0 instructions: 50000003 cycles: 12500700 cumulative IPC: 3.99978 (Simulation time: 0 hr 3 min 17 sec) 

Warmup complete CPU 0 instructions: 50000003 cycles: 12500700 (Simulation time: 0 hr 3 min 17 sec) 

Heartbeat CPU 0 instructions: 60000001 cycles: 26965870 heartbeat IPC: 0.691316 cumulative IPC: 0.691316 (Simulation time: 0 hr 4 min 22 sec) 
Heartbeat CPU 0 instructions: 70000000 cycles: 41256664 heartbeat IPC: 0.699752 cumulative IPC: 0.695508 (Simulation time: 0 hr 5 min 28 sec) 
Heartbeat CPU 0 instructions: 80000001 cycles: 55372088 heartbeat IPC: 0.708445 cumulative IPC: 0.699768 (Simulation time: 0 hr 6 min 33 sec) 
Heartbeat CPU 0 instructions: 90000003 cycles: 69019170 heartbeat IPC: 0.732758 cumulative IPC: 0.707734 (Simulation time: 0 hr 7 min 38 sec) 
Heartbeat CPU 0 instructions: 100000000 cycles: 83323386 heartbeat IPC: 0.699095 cumulative IPC: 0.705989 (Simulation time: 0 hr 8 min 44 sec) 
*** Reached end of trace: /gpfs/projects/bsc18/MN4/bsc18/romol/ChampSim/traces/qualcomm_srv/srv489_ap.champsimtrace.xz
Heartbeat CPU 0 instructions: 110000000 cycles: 97029900 heartbeat IPC: 0.729581 cumulative IPC: 0.709814 (Simulation time: 0 hr 9 min 48 sec) 
Heartbeat CPU 0 instructions: 120000002 cycles: 110380250 heartbeat IPC: 0.749045 cumulative IPC: 0.715165 (Simulation time: 0 hr 10 min 51 sec) 
Heartbeat CPU 0 instructions: 130000000 cycles: 124388991 heartbeat IPC: 0.71384 cumulative IPC: 0.714999 (Simulation time: 0 hr 11 min 54 sec) 
Heartbeat CPU 0 instructions: 140000000 cycles: 137778326 heartbeat IPC: 0.746864 cumulative IPC: 0.718405 (Simulation time: 0 hr 12 min 57 sec) 
Heartbeat CPU 0 instructions: 150000000 cycles: 151973260 heartbeat IPC: 0.704477 cumulative IPC: 0.716987 (Simulation time: 0 hr 14 min 2 sec) 
Simulation finished CPU 0 instructions: 100000000 cycles: 139472562 cumulative IPC: 0.716987 (Simulation time: 0 hr 14 min 2 sec) 

Simulation complete CPU 0 instructions: 100000000 cycles: 139472562 (Simulation time: 0 hr 14 min 2 sec) 


ChampSim completed all CPUs

Saving instructions large page distribution to /home/bsc/bsc018186/scratch/itp_asplos25_AE/dump/srv489_ap.pdst...
Saving data large page distribution to /home/bsc/bsc018186/scratch/itp_asplos25_AE/dump/srv489_ap.pdst...
=== Simulation ===
CPU 0 runs /gpfs/projects/bsc18/MN4/bsc18/romol/ChampSim/traces/qualcomm_srv/srv489_ap.champsimtrace.xz

Region of Interest Statistics

CPU 0 cumulative IPC: 0.716987 instructions: 100000000 cycles: 139472562
CPU 0 Branch Prediction Accuracy: 83.562% MPKI: 29.4231 Average ROB Occupancy at Mispredict: 12.3604
Branch type MPKI
BRANCH_DIRECT_JUMP: 1.01149
BRANCH_INDIRECT: 15.1795
BRANCH_CONDITIONAL: 9.58189
BRANCH_DIRECT_CALL: 1.82401
BRANCH_INDIRECT_CALL: 0.503491
BRANCH_RETURN: 1.32272

Instructions large pages: 0
Instructions small pages: 10830
Large page distribution for instructions: 0%

Data large pages: 0
Data small pages: 9820
Large page distribution for data: 0%

cpu0_L1I TOTAL       ACCESS:   35265013  HIT:   26892751  MISS:    8372262  iACCESS:   35265013  iHIT:   26892751  iMISS:    8372262  dACCESS:          0  dHIT:          0  dMISS:          0  itACCESS:          0  itHIT:          0  itMISS:          0  dtACCESS:          0  dtHIT:          0  dtMISS:          0
cpu0_L1I LOAD         ACCESS:   10353701  HIT:    8003949  MISS:    2349752  iACCESS:   10353701  iHIT:    8003949  iMISS:    2349752  dACCESS:          0  dHIT:          0  dMISS:          0  itACCESS:          0  itHIT:          0  itMISS:          0  dtACCESS:          0  dtHIT:          0  dtMISS:          0
cpu0_L1I RFO          ACCESS:          0  HIT:          0  MISS:          0  iACCESS:          0  iHIT:          0  iMISS:          0  dACCESS:          0  dHIT:          0  dMISS:          0  itACCESS:          0  itHIT:          0  itMISS:          0  dtACCESS:          0  dtHIT:          0  dtMISS:          0
cpu0_L1I PREFETCH     ACCESS:   24911312  HIT:   18888802  MISS:    6022510  iACCESS:   24911312  iHIT:   18888802  iMISS:    6022510  dACCESS:          0  dHIT:          0  dMISS:          0  itACCESS:          0  itHIT:          0  itMISS:          0  dtACCESS:          0  dtHIT:          0  dtMISS:          0
cpu0_L1I WRITE        ACCESS:          0  HIT:          0  MISS:          0  iACCESS:          0  iHIT:          0  iMISS:          0  dACCESS:          0  dHIT:          0  dMISS:          0  itACCESS:          0  itHIT:          0  itMISS:          0  dtACCESS:          0  dtHIT:          0  dtMISS:          0
cpu0_L1I TRANSLATION  ACCESS:          0  HIT:          0  MISS:          0  iACCESS:          0  iHIT:          0  iMISS:          0  dACCESS:          0  dHIT:          0  dMISS:          0  itACCESS:          0  itHIT:          0  itMISS:          0  dtACCESS:          0  dtHIT:          0  dtMISS:          0
cpu0_L1I PREFETCH  REQUESTED:   27252821  ISSUED:   27250787  CROSSED:          0  USEFUL:    1885514  USELESS:     624538
cpu0_L1I AVERAGE iMISS LATENCY: 13.7945 cycles
cpu0_L1I AVERAGE dMISS LATENCY: 0 cycles
cpu0_L1I AVERAGE itMISS LATENCY: 0 cycles
cpu0_L1I AVERAGE dtMISS LATENCY: 0 cycles
cpu0_L1I PAGE CROSSINGS (TLB HIT):         0 
cpu0_L1I PAGE CROSSINGS (TLB MISS):         0 
cpu0_L1I AVERAGE MISS LATENCY: 13.7945 cycles
cpu0_ITLB TOTAL       ACCESS:   29111804  HIT:   27146826  MISS:    1964978  iACCESS:   29111804  iHIT:   27146826  iMISS:    1964978  dACCESS:          0  dHIT:          0  dMISS:          0  itACCESS:          0  itHIT:          0  itMISS:          0  dtACCESS:          0  dtHIT:          0  dtMISS:          0
cpu0_ITLB LOAD         ACCESS:   29111804  HIT:   27146826  MISS:    1964978  iACCESS:   29111804  iHIT:   27146826  iMISS:    1964978  dACCESS:          0  dHIT:          0  dMISS:          0  itACCESS:          0  itHIT:          0  itMISS:          0  dtACCESS:          0  dtHIT:          0  dtMISS:          0
cpu0_ITLB RFO          ACCESS:          0  HIT:          0  MISS:          0  iACCESS:          0  iHIT:          0  iMISS:          0  dACCESS:          0  dHIT:          0  dMISS:          0  itACCESS:          0  itHIT:          0  itMISS:          0  dtACCESS:          0  dtHIT:          0  dtMISS:          0
cpu0_ITLB PREFETCH     ACCESS:          0  HIT:          0  MISS:          0  iACCESS:          0  iHIT:          0  iMISS:          0  dACCESS:          0  dHIT:          0  dMISS:          0  itACCESS:          0  itHIT:          0  itMISS:          0  dtACCESS:          0  dtHIT:          0  dtMISS:          0
cpu0_ITLB WRITE        ACCESS:          0  HIT:          0  MISS:          0  iACCESS:          0  iHIT:          0  iMISS:          0  dACCESS:          0  dHIT:          0  dMISS:          0  itACCESS:          0  itHIT:          0  itMISS:          0  dtACCESS:          0  dtHIT:          0  dtMISS:          0
cpu0_ITLB TRANSLATION  ACCESS:          0  HIT:          0  MISS:          0  iACCESS:          0  iHIT:          0  iMISS:          0  dACCESS:          0  dHIT:          0  dMISS:          0  itACCESS:          0  itHIT:          0  itMISS:          0  dtACCESS:          0  dtHIT:          0  dtMISS:          0
cpu0_ITLB PREFETCH  REQUESTED:          0  ISSUED:          0  CROSSED:          0  USEFUL:     320730  USELESS:      65711
cpu0_ITLB AVERAGE iMISS LATENCY: 2.7825 cycles
cpu0_ITLB AVERAGE dMISS LATENCY: 0 cycles
cpu0_ITLB AVERAGE itMISS LATENCY: 0 cycles
cpu0_ITLB AVERAGE dtMISS LATENCY: 0 cycles
cpu0_ITLB PAGE CROSSINGS (TLB HIT):         0 
cpu0_ITLB PAGE CROSSINGS (TLB MISS):         0 
cpu0_ITLB AVERAGE MISS LATENCY: 2.7825 cycles
cpu0_DTLB TOTAL       ACCESS:   27678936  HIT:   25867481  MISS:    1811455  iACCESS:          0  iHIT:          0  iMISS:          0  dACCESS:   27678936  dHIT:   25867481  dMISS:    1811455  itACCESS:          0  itHIT:          0  itMISS:          0  dtACCESS:          0  dtHIT:          0  dtMISS:          0
cpu0_DTLB LOAD         ACCESS:   27678936  HIT:   25867481  MISS:    1811455  iACCESS:          0  iHIT:          0  iMISS:          0  dACCESS:   27678936  dHIT:   25867481  dMISS:    1811455  itACCESS:          0  itHIT:          0  itMISS:          0  dtACCESS:          0  dtHIT:          0  dtMISS:          0
cpu0_DTLB RFO          ACCESS:          0  HIT:          0  MISS:          0  iACCESS:          0  iHIT:          0  iMISS:          0  dACCESS:          0  dHIT:          0  dMISS:          0  itACCESS:          0  itHIT:          0  itMISS:          0  dtACCESS:          0  dtHIT:          0  dtMISS:          0
cpu0_DTLB PREFETCH     ACCESS:          0  HIT:          0  MISS:          0  iACCESS:          0  iHIT:          0  iMISS:          0  dACCESS:          0  dHIT:          0  dMISS:          0  itACCESS:          0  itHIT:          0  itMISS:          0  dtACCESS:          0  dtHIT:          0  dtMISS:          0
cpu0_DTLB WRITE        ACCESS:          0  HIT:          0  MISS:          0  iACCESS:          0  iHIT:          0  iMISS:          0  dACCESS:          0  dHIT:          0  dMISS:          0  itACCESS:          0  itHIT:          0  itMISS:          0  dtACCESS:          0  dtHIT:          0  dtMISS:          0
cpu0_DTLB TRANSLATION  ACCESS:          0  HIT:          0  MISS:          0  iACCESS:          0  iHIT:          0  iMISS:          0  dACCESS:          0  dHIT:          0  dMISS:          0  itACCESS:          0  itHIT:          0  itMISS:          0  dtACCESS:          0  dtHIT:          0  dtMISS:          0
cpu0_DTLB PREFETCH  REQUESTED:          0  ISSUED:          0  CROSSED:          0  USEFUL:          0  USELESS:          0
cpu0_DTLB AVERAGE iMISS LATENCY: 0 cycles
cpu0_DTLB AVERAGE dMISS LATENCY: 9.43932 cycles
cpu0_DTLB AVERAGE itMISS LATENCY: 0 cycles
cpu0_DTLB AVERAGE dtMISS LATENCY: 0 cycles
cpu0_DTLB PAGE CROSSINGS (TLB HIT):         0 
cpu0_DTLB PAGE CROSSINGS (TLB MISS):         0 
cpu0_DTLB AVERAGE MISS LATENCY: 9.43932 cycles
cpu0_STLB TOTAL       ACCESS:    1501111  HIT:    1330046  MISS:     171065  iACCESS:     386450  iHIT:     324086  iMISS:      62364  dACCESS:    1114661  dHIT:    1005960  dMISS:     108701  itACCESS:          0  itHIT:          0  itMISS:          0  dtACCESS:          0  dtHIT:          0  dtMISS:          0
cpu0_STLB LOAD         ACCESS:    1501111  HIT:    1330046  MISS:     171065  iACCESS:     386450  iHIT:     324086  iMISS:      62364  dACCESS:    1114661  dHIT:    1005960  dMISS:     108701  itACCESS:          0  itHIT:          0  itMISS:          0  dtACCESS:          0  dtHIT:          0  dtMISS:          0
cpu0_STLB RFO          ACCESS:          0  HIT:          0  MISS:          0  iACCESS:          0  iHIT:          0  iMISS:          0  dACCESS:          0  dHIT:          0  dMISS:          0  itACCESS:          0  itHIT:          0  itMISS:          0  dtACCESS:          0  dtHIT:          0  dtMISS:          0
cpu0_STLB PREFETCH     ACCESS:          0  HIT:          0  MISS:          0  iACCESS:          0  iHIT:          0  iMISS:          0  dACCESS:          0  dHIT:          0  dMISS:          0  itACCESS:          0  itHIT:          0  itMISS:          0  dtACCESS:          0  dtHIT:          0  dtMISS:          0
cpu0_STLB WRITE        ACCESS:          0  HIT:          0  MISS:          0  iACCESS:          0  iHIT:          0  iMISS:          0  dACCESS:          0  dHIT:          0  dMISS:          0  itACCESS:          0  itHIT:          0  itMISS:          0  dtACCESS:          0  dtHIT:          0  dtMISS:          0
cpu0_STLB TRANSLATION  ACCESS:          0  HIT:          0  MISS:          0  iACCESS:          0  iHIT:          0  iMISS:          0  dACCESS:          0  dHIT:          0  dMISS:          0  itACCESS:          0  itHIT:          0  itMISS:          0  dtACCESS:          0  dtHIT:          0  dtMISS:          0
cpu0_STLB PREFETCH  REQUESTED:          0  ISSUED:          0  CROSSED:          0  USEFUL:          0  USELESS:          0
cpu0_STLB AVERAGE iMISS LATENCY: 14.1011 cycles
cpu0_STLB AVERAGE dMISS LATENCY: 47.9781 cycles
cpu0_STLB AVERAGE itMISS LATENCY: 0 cycles
cpu0_STLB AVERAGE dtMISS LATENCY: 0 cycles
cpu0_STLB PAGE CROSSINGS (TLB HIT):         0 
cpu0_STLB PAGE CROSSINGS (TLB MISS):         0 
cpu0_STLB AVERAGE MISS LATENCY: 62.0792 cycles
cpu0_L1D TOTAL       ACCESS:   41409666  HIT:   37941966  MISS:    3467700  iACCESS:          0  iHIT:          0  iMISS:          0  dACCESS:   41178956  dHIT:   37921261  dMISS:    3257695  itACCESS:      67895  itHIT:       9697  itMISS:      58198  dtACCESS:     162815  dtHIT:      11008  dtMISS:     151807
cpu0_L1D LOAD         ACCESS:   18911959  HIT:   17436563  MISS:    1475396  iACCESS:          0  iHIT:          0  iMISS:          0  dACCESS:   18911959  dHIT:   17436563  dMISS:    1475396  itACCESS:          0  itHIT:          0  itMISS:          0  dtACCESS:          0  dtHIT:          0  dtMISS:          0
cpu0_L1D RFO          ACCESS:          0  HIT:          0  MISS:          0  iACCESS:          0  iHIT:          0  iMISS:          0  dACCESS:          0  dHIT:          0  dMISS:          0  itACCESS:          0  itHIT:          0  itMISS:          0  dtACCESS:          0  dtHIT:          0  dtMISS:          0
cpu0_L1D PREFETCH     ACCESS:   12071055  HIT:   10735738  MISS:    1335317  iACCESS:          0  iHIT:          0  iMISS:          0  dACCESS:   12071055  dHIT:   10735738  dMISS:    1335317  itACCESS:          0  itHIT:          0  itMISS:          0  dtACCESS:          0  dtHIT:          0  dtMISS:          0
cpu0_L1D WRITE        ACCESS:   10195942  HIT:    9748960  MISS:     446982  iACCESS:          0  iHIT:          0  iMISS:          0  dACCESS:   10195942  dHIT:    9748960  dMISS:     446982  itACCESS:          0  itHIT:          0  itMISS:          0  dtACCESS:          0  dtHIT:          0  dtMISS:          0
cpu0_L1D TRANSLATION  ACCESS:     230710  HIT:      20705  MISS:     210005  iACCESS:          0  iHIT:          0  iMISS:          0  dACCESS:          0  dHIT:          0  dMISS:          0  itACCESS:      67895  itHIT:       9697  itMISS:      58198  dtACCESS:     162815  dtHIT:      11008  dtMISS:     151807
cpu0_L1D PREFETCH  REQUESTED:   18911959  ISSUED:   16854128  CROSSED:          0  USEFUL:     304533  USELESS:     694989
cpu0_L1D AVERAGE iMISS LATENCY: 0 cycles
cpu0_L1D AVERAGE dMISS LATENCY: 35.4489 cycles
cpu0_L1D AVERAGE itMISS LATENCY: 0.539226 cycles
cpu0_L1D AVERAGE dtMISS LATENCY: 1.67495 cycles
cpu0_L1D PAGE CROSSINGS (TLB HIT):         0 
cpu0_L1D PAGE CROSSINGS (TLB MISS):         0 
cpu0_L1D AVERAGE MISS LATENCY: 37.6631 cycles
cpu0_L2C TOTAL       ACCESS:    6888680  HIT:    1221569  MISS:    5667111  iACCESS:    3262908  iHIT:     680839  iMISS:    2582069  dACCESS:    3423584  dHIT:     378804  dMISS:    3044780  itACCESS:      58198  itHIT:      47120  itMISS:      11078  dtACCESS:     143990  dtHIT:     114806  dtMISS:      29184
cpu0_L2C LOAD         ACCESS:    1706483  HIT:     142281  MISS:    1564202  iACCESS:     785795  iHIT:     103491  iMISS:     682304  dACCESS:     920688  dHIT:      38790  dMISS:     881898  itACCESS:          0  itHIT:          0  itMISS:          0  dtACCESS:          0  dtHIT:          0  dtMISS:          0
cpu0_L2C RFO          ACCESS:     156433  HIT:       9233  MISS:     147200  iACCESS:          0  iHIT:          0  iMISS:          0  dACCESS:     156433  dHIT:       9233  dMISS:     147200  itACCESS:          0  itHIT:          0  itMISS:          0  dtACCESS:          0  dtHIT:          0  dtMISS:          0
cpu0_L2C PREFETCH     ACCESS:    4540103  HIT:     849070  MISS:    3691033  iACCESS:    2477113  iHIT:     577348  iMISS:    1899765  dACCESS:    2062990  dHIT:     271722  dMISS:    1791268  itACCESS:          0  itHIT:          0  itMISS:          0  dtACCESS:          0  dtHIT:          0  dtMISS:          0
cpu0_L2C WRITE        ACCESS:     283473  HIT:      59059  MISS:     224414  iACCESS:          0  iHIT:          0  iMISS:          0  dACCESS:     283473  dHIT:      59059  dMISS:     224414  itACCESS:          0  itHIT:          0  itMISS:          0  dtACCESS:          0  dtHIT:          0  dtMISS:          0
cpu0_L2C TRANSLATION  ACCESS:     202188  HIT:     161926  MISS:      40262  iACCESS:          0  iHIT:          0  iMISS:          0  dACCESS:          0  dHIT:          0  dMISS:          0  itACCESS:      58198  itHIT:      47120  itMISS:      11078  dtACCESS:     143990  dtHIT:     114806  dtMISS:      29184
cpu0_L2C PREFETCH  REQUESTED:    1310383  ISSUED:    1310383  CROSSED:          0  USEFUL:     401180  USELESS:     371835
cpu0_L2C AVERAGE iMISS LATENCY: 15.0278 cycles
cpu0_L2C AVERAGE dMISS LATENCY: 24.8086 cycles
cpu0_L2C AVERAGE itMISS LATENCY: 0.235353 cycles
cpu0_L2C AVERAGE dtMISS LATENCY: 0.789811 cycles
cpu0_L2C PAGE CROSSINGS (TLB HIT):         0 
cpu0_L2C PAGE CROSSINGS (TLB MISS):         0 
cpu0_L2C AVERAGE MISS LATENCY: 40.8615 cycles
LLC TOTAL       ACCESS:    5592142  HIT:    4779590  MISS:     812552  iACCESS:    2529705  iHIT:    2280752  iMISS:     248953  dACCESS:    3022175  dHIT:    2487015  dMISS:     535160  itACCESS:      11078  itHIT:       4607  itMISS:       6471  dtACCESS:      29184  dtHIT:       7216  dtMISS:      21968
LLC LOAD         ACCESS:    1562593  HIT:    1370352  MISS:     192241  iACCESS:     681002  iHIT:     627661  iMISS:      53341  dACCESS:     881591  dHIT:     742691  dMISS:     138900  itACCESS:          0  itHIT:          0  itMISS:          0  dtACCESS:          0  dtHIT:          0  dtMISS:          0
LLC RFO          ACCESS:     147199  HIT:     105852  MISS:      41347  iACCESS:          0  iHIT:          0  iMISS:          0  dACCESS:     147199  dHIT:     105852  dMISS:      41347  itACCESS:          0  itHIT:          0  itMISS:          0  dtACCESS:          0  dtHIT:          0  dtMISS:          0
LLC PREFETCH     ACCESS:    3585250  HIT:    3034725  MISS:     550525  iACCESS:    1848703  iHIT:    1653091  iMISS:     195612  dACCESS:    1736547  dHIT:    1381634  dMISS:     354913  itACCESS:          0  itHIT:          0  itMISS:          0  dtACCESS:          0  dtHIT:          0  dtMISS:          0
LLC WRITE        ACCESS:     256838  HIT:     256838  MISS:          0  iACCESS:          0  iHIT:          0  iMISS:          0  dACCESS:     256838  dHIT:     256838  dMISS:          0  itACCESS:          0  itHIT:          0  itMISS:          0  dtACCESS:          0  dtHIT:          0  dtMISS:          0
LLC TRANSLATION  ACCESS:      40262  HIT:      11823  MISS:      28439  iACCESS:          0  iHIT:          0  iMISS:          0  dACCESS:          0  dHIT:          0  dMISS:          0  itACCESS:      11078  itHIT:       4607  itMISS:       6471  dtACCESS:      29184  dtHIT:       7216  dtMISS:      21968
LLC PREFETCH  REQUESTED:          0  ISSUED:          0  CROSSED:          0  USEFUL:          0  USELESS:          0
LLC AVERAGE iMISS LATENCY: 44.7392 cycles
LLC AVERAGE dMISS LATENCY: 107.341 cycles
LLC AVERAGE itMISS LATENCY: 1.37484 cycles
LLC AVERAGE dtMISS LATENCY: 4.80195 cycles
LLC PAGE CROSSINGS (TLB HIT):         0 
LLC PAGE CROSSINGS (TLB MISS):         0 
LLC AVERAGE MISS LATENCY: 158.257 cycles

PageTableWalker TOTAL       ACCESS:      84849  
PageTableWalker AVERAGE LATENCY: 4.14953 cycles
PageTableWalker TOTAL LATENCY: 352083 cycles

DRAM Statistics
Channel 0
 RQ ROW_BUFFER_HIT:     230949
  ROW_BUFFER_MISS:     581535
 AVG DBUS CONGESTED CYCLE:    3.63138
 WQ ROW_BUFFER_HIT:      21945
  ROW_BUFFER_MISS:      30296  FULL:          0

