last_page:0x200000000000000
VMEM_RES_CAP:0x100000
PAGE_SIZE:4096
LOG2_PAGE_SIZE:12
LOG2_PAGE_TABLE_SIZE:9
page_table_levels:5
WARNING: physical memory size is smaller than virtual memory size
FDiP enabled with aggresivity 16

*** ChampSim Multicore Out-of-Order Simulator ***

Warmup Instructions: 50000000
Simulation Instructions: 100000000
Number of CPUs: 1
Small page size: 4096
Large page size: 2097152

CPU 0 Bimodal branch predictor
Basic BTB sets: 1024 ways: 8 indirect buffer size: 4096 RAS size: 64
Instruction page size distrubution: 0
Loading instruction page size distribution from /home/bsc/bsc018186/scratch/itp_asplos25_AE/dump/srv413_ap.pdst
Data page size distrubution: 0
Loading data page size distribution from /home/bsc/bsc018186/scratch/itp_asplos25_AE/dump/srv413_ap.pdst
cpu0_L2C IP-based stride prefetcher
cpu0_L2C is using PTP replacement policy:
	TLB_STRESS_THRESHOLD:0
	PTE_EVICTION_RATIO:0
cpu0_L1D next line prefetcher
cpu0_L1I next line prefetcher
Off-chip DRAM Size: 4 GiB Channels: 1 Width: 64-bit Data Rate: 3200 MT/s
Heartbeat CPU 0 instructions: 10000002 cycles: 2500223 heartbeat IPC: 3.99965 cumulative IPC: 3.99965 (Simulation time: 0 hr 0 min 38 sec) 
Heartbeat CPU 0 instructions: 20000003 cycles: 5000291 heartbeat IPC: 3.9999 cumulative IPC: 3.99977 (Simulation time: 0 hr 1 min 17 sec) 
Heartbeat CPU 0 instructions: 30000002 cycles: 7500325 heartbeat IPC: 3.99995 cumulative IPC: 3.99983 (Simulation time: 0 hr 1 min 58 sec) 
Heartbeat CPU 0 instructions: 40000002 cycles: 10000364 heartbeat IPC: 3.99994 cumulative IPC: 3.99986 (Simulation time: 0 hr 2 min 38 sec) 
Heartbeat CPU 0 instructions: 50000000 cycles: 12500365 heartbeat IPC: 4 cumulative IPC: 3.99989 (Simulation time: 0 hr 3 min 19 sec) 
Warmup finished CPU 0 instructions: 50000000 cycles: 12500366 cumulative IPC: 3.99989 (Simulation time: 0 hr 3 min 19 sec) 

Warmup complete CPU 0 instructions: 50000000 cycles: 12500366 (Simulation time: 0 hr 3 min 19 sec) 

Heartbeat CPU 0 instructions: 60000003 cycles: 26403526 heartbeat IPC: 0.719262 cumulative IPC: 0.719262 (Simulation time: 0 hr 4 min 23 sec) 
Heartbeat CPU 0 instructions: 70000002 cycles: 38022157 heartbeat IPC: 0.860687 cumulative IPC: 0.783645 (Simulation time: 0 hr 5 min 25 sec) 
Heartbeat CPU 0 instructions: 80000000 cycles: 47208441 heartbeat IPC: 1.08858 cumulative IPC: 0.864353 (Simulation time: 0 hr 6 min 23 sec) 
Heartbeat CPU 0 instructions: 90000002 cycles: 61319026 heartbeat IPC: 0.708688 cumulative IPC: 0.819359 (Simulation time: 0 hr 7 min 27 sec) 
Heartbeat CPU 0 instructions: 100000001 cycles: 75812947 heartbeat IPC: 0.689945 cumulative IPC: 0.789733 (Simulation time: 0 hr 8 min 31 sec) 
*** Reached end of trace: /gpfs/projects/bsc18/MN4/bsc18/romol/ChampSim/traces/qualcomm_srv/srv413_ap.champsimtrace.xz
Heartbeat CPU 0 instructions: 110000001 cycles: 89232503 heartbeat IPC: 0.745182 cumulative IPC: 0.781941 (Simulation time: 0 hr 9 min 33 sec) 
Heartbeat CPU 0 instructions: 120000000 cycles: 103823140 heartbeat IPC: 0.685371 cumulative IPC: 0.766512 (Simulation time: 0 hr 10 min 38 sec) 
Heartbeat CPU 0 instructions: 130000001 cycles: 117242281 heartbeat IPC: 0.745205 cumulative IPC: 0.763783 (Simulation time: 0 hr 11 min 41 sec) 
Heartbeat CPU 0 instructions: 140000003 cycles: 131835421 heartbeat IPC: 0.685254 cumulative IPC: 0.75418 (Simulation time: 0 hr 12 min 45 sec) 
Heartbeat CPU 0 instructions: 150000004 cycles: 145498023 heartbeat IPC: 0.731926 cumulative IPC: 0.751893 (Simulation time: 0 hr 13 min 48 sec) 
Simulation finished CPU 0 instructions: 100000004 cycles: 132997658 cumulative IPC: 0.751893 (Simulation time: 0 hr 13 min 48 sec) 

Simulation complete CPU 0 instructions: 100000004 cycles: 132997658 (Simulation time: 0 hr 13 min 48 sec) 


ChampSim completed all CPUs

Saving instructions large page distribution to /home/bsc/bsc018186/scratch/itp_asplos25_AE/dump/srv413_ap.pdst...
Saving data large page distribution to /home/bsc/bsc018186/scratch/itp_asplos25_AE/dump/srv413_ap.pdst...
=== Simulation ===
CPU 0 runs /gpfs/projects/bsc18/MN4/bsc18/romol/ChampSim/traces/qualcomm_srv/srv413_ap.champsimtrace.xz

Region of Interest Statistics

CPU 0 cumulative IPC: 0.751893 instructions: 100000004 cycles: 132997658
CPU 0 Branch Prediction Accuracy: 85.7708% MPKI: 27.3215 Average ROB Occupancy at Mispredict: 13.8715
Branch type MPKI
BRANCH_DIRECT_JUMP: 0.85247
BRANCH_INDIRECT: 14.2733
BRANCH_CONDITIONAL: 8.85647
BRANCH_DIRECT_CALL: 1.63104
BRANCH_INDIRECT_CALL: 0.52265
BRANCH_RETURN: 1.18553

Instructions large pages: 0
Instructions small pages: 9695
Large page distribution for instructions: 0%

Data large pages: 0
Data small pages: 8720
Large page distribution for data: 0%

cpu0_L1I TOTAL       ACCESS:   34317526  HIT:   26662166  MISS:    7655360  iACCESS:   34317526  iHIT:   26662166  iMISS:    7655360  dACCESS:          0  dHIT:          0  dMISS:          0  itACCESS:          0  itHIT:          0  itMISS:          0  dtACCESS:          0  dtHIT:          0  dtMISS:          0
cpu0_L1I LOAD         ACCESS:    9237849  HIT:    7095080  MISS:    2142769  iACCESS:    9237849  iHIT:    7095080  iMISS:    2142769  dACCESS:          0  dHIT:          0  dMISS:          0  itACCESS:          0  itHIT:          0  itMISS:          0  dtACCESS:          0  dtHIT:          0  dtMISS:          0
cpu0_L1I RFO          ACCESS:          0  HIT:          0  MISS:          0  iACCESS:          0  iHIT:          0  iMISS:          0  dACCESS:          0  dHIT:          0  dMISS:          0  itACCESS:          0  itHIT:          0  itMISS:          0  dtACCESS:          0  dtHIT:          0  dtMISS:          0
cpu0_L1I PREFETCH     ACCESS:   25079677  HIT:   19567086  MISS:    5512591  iACCESS:   25079677  iHIT:   19567086  iMISS:    5512591  dACCESS:          0  dHIT:          0  dMISS:          0  itACCESS:          0  itHIT:          0  itMISS:          0  dtACCESS:          0  dtHIT:          0  dtMISS:          0
cpu0_L1I WRITE        ACCESS:          0  HIT:          0  MISS:          0  iACCESS:          0  iHIT:          0  iMISS:          0  dACCESS:          0  dHIT:          0  dMISS:          0  itACCESS:          0  itHIT:          0  itMISS:          0  dtACCESS:          0  dtHIT:          0  dtMISS:          0
cpu0_L1I TRANSLATION  ACCESS:          0  HIT:          0  MISS:          0  iACCESS:          0  iHIT:          0  iMISS:          0  dACCESS:          0  dHIT:          0  dMISS:          0  itACCESS:          0  itHIT:          0  itMISS:          0  dtACCESS:          0  dtHIT:          0  dtMISS:          0
cpu0_L1I PREFETCH  REQUESTED:   27078968  ISSUED:   27075307  CROSSED:          0  USEFUL:    1722267  USELESS:     565572
cpu0_L1I AVERAGE iMISS LATENCY: 13.8051 cycles
cpu0_L1I AVERAGE dMISS LATENCY: 0 cycles
cpu0_L1I AVERAGE itMISS LATENCY: 0 cycles
cpu0_L1I AVERAGE dtMISS LATENCY: 0 cycles
cpu0_L1I PAGE CROSSINGS (TLB HIT):         0 
cpu0_L1I PAGE CROSSINGS (TLB MISS):         0 
cpu0_L1I AVERAGE MISS LATENCY: 13.8051 cycles
cpu0_ITLB TOTAL       ACCESS:   28450169  HIT:   26682005  MISS:    1768164  iACCESS:   28450169  iHIT:   26682005  iMISS:    1768164  dACCESS:          0  dHIT:          0  dMISS:          0  itACCESS:          0  itHIT:          0  itMISS:          0  dtACCESS:          0  dtHIT:          0  dtMISS:          0
cpu0_ITLB LOAD         ACCESS:   28450169  HIT:   26682005  MISS:    1768164  iACCESS:   28450169  iHIT:   26682005  iMISS:    1768164  dACCESS:          0  dHIT:          0  dMISS:          0  itACCESS:          0  itHIT:          0  itMISS:          0  dtACCESS:          0  dtHIT:          0  dtMISS:          0
cpu0_ITLB RFO          ACCESS:          0  HIT:          0  MISS:          0  iACCESS:          0  iHIT:          0  iMISS:          0  dACCESS:          0  dHIT:          0  dMISS:          0  itACCESS:          0  itHIT:          0  itMISS:          0  dtACCESS:          0  dtHIT:          0  dtMISS:          0
cpu0_ITLB PREFETCH     ACCESS:          0  HIT:          0  MISS:          0  iACCESS:          0  iHIT:          0  iMISS:          0  dACCESS:          0  dHIT:          0  dMISS:          0  itACCESS:          0  itHIT:          0  itMISS:          0  dtACCESS:          0  dtHIT:          0  dtMISS:          0
cpu0_ITLB WRITE        ACCESS:          0  HIT:          0  MISS:          0  iACCESS:          0  iHIT:          0  iMISS:          0  dACCESS:          0  dHIT:          0  dMISS:          0  itACCESS:          0  itHIT:          0  itMISS:          0  dtACCESS:          0  dtHIT:          0  dtMISS:          0
cpu0_ITLB TRANSLATION  ACCESS:          0  HIT:          0  MISS:          0  iACCESS:          0  iHIT:          0  iMISS:          0  dACCESS:          0  dHIT:          0  dMISS:          0  itACCESS:          0  itHIT:          0  itMISS:          0  dtACCESS:          0  dtHIT:          0  dtMISS:          0
cpu0_ITLB PREFETCH  REQUESTED:          0  ISSUED:          0  CROSSED:          0  USEFUL:     290256  USELESS:      55058
cpu0_ITLB AVERAGE iMISS LATENCY: 2.83727 cycles
cpu0_ITLB AVERAGE dMISS LATENCY: 0 cycles
cpu0_ITLB AVERAGE itMISS LATENCY: 0 cycles
cpu0_ITLB AVERAGE dtMISS LATENCY: 0 cycles
cpu0_ITLB PAGE CROSSINGS (TLB HIT):         0 
cpu0_ITLB PAGE CROSSINGS (TLB MISS):         0 
cpu0_ITLB AVERAGE MISS LATENCY: 2.83727 cycles
cpu0_DTLB TOTAL       ACCESS:   29450608  HIT:   25163121  MISS:    4287487  iACCESS:          0  iHIT:          0  iMISS:          0  dACCESS:   29450608  dHIT:   25163121  dMISS:    4287487  itACCESS:          0  itHIT:          0  itMISS:          0  dtACCESS:          0  dtHIT:          0  dtMISS:          0
cpu0_DTLB LOAD         ACCESS:   29450608  HIT:   25163121  MISS:    4287487  iACCESS:          0  iHIT:          0  iMISS:          0  dACCESS:   29450608  dHIT:   25163121  dMISS:    4287487  itACCESS:          0  itHIT:          0  itMISS:          0  dtACCESS:          0  dtHIT:          0  dtMISS:          0
cpu0_DTLB RFO          ACCESS:          0  HIT:          0  MISS:          0  iACCESS:          0  iHIT:          0  iMISS:          0  dACCESS:          0  dHIT:          0  dMISS:          0  itACCESS:          0  itHIT:          0  itMISS:          0  dtACCESS:          0  dtHIT:          0  dtMISS:          0
cpu0_DTLB PREFETCH     ACCESS:          0  HIT:          0  MISS:          0  iACCESS:          0  iHIT:          0  iMISS:          0  dACCESS:          0  dHIT:          0  dMISS:          0  itACCESS:          0  itHIT:          0  itMISS:          0  dtACCESS:          0  dtHIT:          0  dtMISS:          0
cpu0_DTLB WRITE        ACCESS:          0  HIT:          0  MISS:          0  iACCESS:          0  iHIT:          0  iMISS:          0  dACCESS:          0  dHIT:          0  dMISS:          0  itACCESS:          0  itHIT:          0  itMISS:          0  dtACCESS:          0  dtHIT:          0  dtMISS:          0
cpu0_DTLB TRANSLATION  ACCESS:          0  HIT:          0  MISS:          0  iACCESS:          0  iHIT:          0  iMISS:          0  dACCESS:          0  dHIT:          0  dMISS:          0  itACCESS:          0  itHIT:          0  itMISS:          0  dtACCESS:          0  dtHIT:          0  dtMISS:          0
cpu0_DTLB PREFETCH  REQUESTED:          0  ISSUED:          0  CROSSED:          0  USEFUL:          0  USELESS:          0
cpu0_DTLB AVERAGE iMISS LATENCY: 0 cycles
cpu0_DTLB AVERAGE dMISS LATENCY: 5.93981 cycles
cpu0_DTLB AVERAGE itMISS LATENCY: 0 cycles
cpu0_DTLB AVERAGE dtMISS LATENCY: 0 cycles
cpu0_DTLB PAGE CROSSINGS (TLB HIT):         0 
cpu0_DTLB PAGE CROSSINGS (TLB MISS):         0 
cpu0_DTLB AVERAGE MISS LATENCY: 5.93981 cycles
cpu0_STLB TOTAL       ACCESS:    2583425  HIT:    2439570  MISS:     143855  iACCESS:     345369  iHIT:     294931  iMISS:      50438  dACCESS:    2238056  dHIT:    2144639  dMISS:      93417  itACCESS:          0  itHIT:          0  itMISS:          0  dtACCESS:          0  dtHIT:          0  dtMISS:          0
cpu0_STLB LOAD         ACCESS:    2583425  HIT:    2439570  MISS:     143855  iACCESS:     345369  iHIT:     294931  iMISS:      50438  dACCESS:    2238056  dHIT:    2144639  dMISS:      93417  itACCESS:          0  itHIT:          0  itMISS:          0  dtACCESS:          0  dtHIT:          0  dtMISS:          0
cpu0_STLB RFO          ACCESS:          0  HIT:          0  MISS:          0  iACCESS:          0  iHIT:          0  iMISS:          0  dACCESS:          0  dHIT:          0  dMISS:          0  itACCESS:          0  itHIT:          0  itMISS:          0  dtACCESS:          0  dtHIT:          0  dtMISS:          0
cpu0_STLB PREFETCH     ACCESS:          0  HIT:          0  MISS:          0  iACCESS:          0  iHIT:          0  iMISS:          0  dACCESS:          0  dHIT:          0  dMISS:          0  itACCESS:          0  itHIT:          0  itMISS:          0  dtACCESS:          0  dtHIT:          0  dtMISS:          0
cpu0_STLB WRITE        ACCESS:          0  HIT:          0  MISS:          0  iACCESS:          0  iHIT:          0  iMISS:          0  dACCESS:          0  dHIT:          0  dMISS:          0  itACCESS:          0  itHIT:          0  itMISS:          0  dtACCESS:          0  dtHIT:          0  dtMISS:          0
cpu0_STLB TRANSLATION  ACCESS:          0  HIT:          0  MISS:          0  iACCESS:          0  iHIT:          0  iMISS:          0  dACCESS:          0  dHIT:          0  dMISS:          0  itACCESS:          0  itHIT:          0  itMISS:          0  dtACCESS:          0  dtHIT:          0  dtMISS:          0
cpu0_STLB PREFETCH  REQUESTED:          0  ISSUED:          0  CROSSED:          0  USEFUL:          0  USELESS:          0
cpu0_STLB AVERAGE iMISS LATENCY: 15.9364 cycles
cpu0_STLB AVERAGE dMISS LATENCY: 51.5385 cycles
cpu0_STLB AVERAGE itMISS LATENCY: 0 cycles
cpu0_STLB AVERAGE dtMISS LATENCY: 0 cycles
cpu0_STLB PAGE CROSSINGS (TLB HIT):         0 
cpu0_STLB PAGE CROSSINGS (TLB MISS):         0 
cpu0_STLB AVERAGE MISS LATENCY: 67.4749 cycles
cpu0_L1D TOTAL       ACCESS:   45008823  HIT:   38461232  MISS:    6547591  iACCESS:          0  iHIT:          0  iMISS:          0  dACCESS:   44808501  dHIT:   38443859  dMISS:    6364642  itACCESS:      54757  itHIT:       8031  itMISS:      46726  dtACCESS:     145565  dtHIT:       9342  dtMISS:     136223
cpu0_L1D LOAD         ACCESS:   21853941  HIT:   18097087  MISS:    3756854  iACCESS:          0  iHIT:          0  iMISS:          0  dACCESS:   21853941  dHIT:   18097087  dMISS:    3756854  itACCESS:          0  itHIT:          0  itMISS:          0  dtACCESS:          0  dtHIT:          0  dtMISS:          0
cpu0_L1D RFO          ACCESS:          0  HIT:          0  MISS:          0  iACCESS:          0  iHIT:          0  iMISS:          0  dACCESS:          0  dHIT:          0  dMISS:          0  itACCESS:          0  itHIT:          0  itMISS:          0  dtACCESS:          0  dtHIT:          0  dtMISS:          0
cpu0_L1D PREFETCH     ACCESS:   13162902  HIT:   10981269  MISS:    2181633  iACCESS:          0  iHIT:          0  iMISS:          0  dACCESS:   13162902  dHIT:   10981269  dMISS:    2181633  itACCESS:          0  itHIT:          0  itMISS:          0  dtACCESS:          0  dtHIT:          0  dtMISS:          0
cpu0_L1D WRITE        ACCESS:    9791658  HIT:    9365503  MISS:     426155  iACCESS:          0  iHIT:          0  iMISS:          0  dACCESS:    9791658  dHIT:    9365503  dMISS:     426155  itACCESS:          0  itHIT:          0  itMISS:          0  dtACCESS:          0  dtHIT:          0  dtMISS:          0
cpu0_L1D TRANSLATION  ACCESS:     200322  HIT:      17373  MISS:     182949  iACCESS:          0  iHIT:          0  iMISS:          0  dACCESS:          0  dHIT:          0  dMISS:          0  itACCESS:      54757  itHIT:       8031  itMISS:      46726  dtACCESS:     145565  dtHIT:       9342  dtMISS:     136223
cpu0_L1D PREFETCH  REQUESTED:   21853941  ISSUED:   17216263  CROSSED:          0  USEFUL:     275553  USELESS:     685463
cpu0_L1D AVERAGE iMISS LATENCY: 0 cycles
cpu0_L1D AVERAGE dMISS LATENCY: 22.3545 cycles
cpu0_L1D AVERAGE itMISS LATENCY: 0.279537 cycles
cpu0_L1D AVERAGE dtMISS LATENCY: 0.829251 cycles
cpu0_L1D PAGE CROSSINGS (TLB HIT):         0 
cpu0_L1D PAGE CROSSINGS (TLB MISS):         0 
cpu0_L1D AVERAGE MISS LATENCY: 23.4633 cycles
cpu0_L2C TOTAL       ACCESS:    7751212  HIT:    1671017  MISS:    6080195  iACCESS:    2958574  iHIT:     652384  iMISS:    2306190  dACCESS:    4622583  dHIT:     889379  dMISS:    3733204  itACCESS:      46684  itHIT:      34807  itMISS:      11877  dtACCESS:     123371  dtHIT:      94447  dtMISS:      28924
cpu0_L2C LOAD         ACCESS:    2955235  HIT:     639942  MISS:    2315293  iACCESS:     705371  iHIT:     105333  iMISS:     600038  dACCESS:    2249864  dHIT:     534609  dMISS:    1715255  itACCESS:          0  itHIT:          0  itMISS:          0  dtACCESS:          0  dtHIT:          0  dtMISS:          0
cpu0_L2C RFO          ACCESS:     160734  HIT:      25858  MISS:     134876  iACCESS:          0  iHIT:          0  iMISS:          0  dACCESS:     160734  dHIT:      25858  dMISS:     134876  itACCESS:          0  itHIT:          0  itMISS:          0  dtACCESS:          0  dtHIT:          0  dtMISS:          0
cpu0_L2C PREFETCH     ACCESS:    4210224  HIT:     826136  MISS:    3384088  iACCESS:    2253203  iHIT:     547051  iMISS:    1706152  dACCESS:    1957021  dHIT:     279085  dMISS:    1677936  itACCESS:          0  itHIT:          0  itMISS:          0  dtACCESS:          0  dtHIT:          0  dtMISS:          0
cpu0_L2C WRITE        ACCESS:     254964  HIT:      49827  MISS:     205137  iACCESS:          0  iHIT:          0  iMISS:          0  dACCESS:     254964  dHIT:      49827  dMISS:     205137  itACCESS:          0  itHIT:          0  itMISS:          0  dtACCESS:          0  dtHIT:          0  dtMISS:          0
cpu0_L2C TRANSLATION  ACCESS:     170055  HIT:     129254  MISS:      40801  iACCESS:          0  iHIT:          0  iMISS:          0  dACCESS:          0  dHIT:          0  dMISS:          0  itACCESS:      46684  itHIT:      34807  itMISS:      11877  dtACCESS:     123371  dtHIT:      94447  dtMISS:      28924
cpu0_L2C PREFETCH  REQUESTED:    1252416  ISSUED:    1252416  CROSSED:          0  USEFUL:     370702  USELESS:     350223
cpu0_L2C AVERAGE iMISS LATENCY: 12.8366 cycles
cpu0_L2C AVERAGE dMISS LATENCY: 24.4247 cycles
cpu0_L2C AVERAGE itMISS LATENCY: 0.229804 cycles
cpu0_L2C AVERAGE dtMISS LATENCY: 0.70459 cycles
cpu0_L2C PAGE CROSSINGS (TLB HIT):         0 
cpu0_L2C PAGE CROSSINGS (TLB MISS):         0 
cpu0_L2C AVERAGE MISS LATENCY: 38.1956 cycles
LLC TOTAL       ACCESS:    5997570  HIT:    5237679  MISS:     759891  iACCESS:    2252925  iHIT:    2019442  iMISS:     233483  dACCESS:    3703844  dHIT:    3204912  dMISS:     498932  itACCESS:      11877  itHIT:       5117  itMISS:       6760  dtACCESS:      28924  dtHIT:       8208  dtMISS:      20716
LLC LOAD         ACCESS:    2312942  HIT:    2133584  MISS:     179358  iACCESS:     598664  iHIT:     548706  iMISS:      49958  dACCESS:    1714278  dHIT:    1584878  dMISS:     129400  itACCESS:          0  itHIT:          0  itMISS:          0  dtACCESS:          0  dtHIT:          0  dtMISS:          0
LLC RFO          ACCESS:     134876  HIT:      98056  MISS:      36820  iACCESS:          0  iHIT:          0  iMISS:          0  dACCESS:     134876  dHIT:      98056  dMISS:      36820  itACCESS:          0  itHIT:          0  itMISS:          0  dtACCESS:          0  dtHIT:          0  dtMISS:          0
LLC PREFETCH     ACCESS:    3276896  HIT:    2760661  MISS:     516235  iACCESS:    1654261  iHIT:    1470736  iMISS:     183525  dACCESS:    1622635  dHIT:    1289925  dMISS:     332710  itACCESS:          0  itHIT:          0  itMISS:          0  dtACCESS:          0  dtHIT:          0  dtMISS:          0
LLC WRITE        ACCESS:     232055  HIT:     232053  MISS:          2  iACCESS:          0  iHIT:          0  iMISS:          0  dACCESS:     232055  dHIT:     232053  dMISS:          2  itACCESS:          0  itHIT:          0  itMISS:          0  dtACCESS:          0  dtHIT:          0  dtMISS:          0
LLC TRANSLATION  ACCESS:      40801  HIT:      13325  MISS:      27476  iACCESS:          0  iHIT:          0  iMISS:          0  dACCESS:          0  dHIT:          0  dMISS:          0  itACCESS:      11877  itHIT:       5117  itMISS:       6760  dtACCESS:      28924  dtHIT:       8208  dtMISS:      20716
LLC PREFETCH  REQUESTED:          0  ISSUED:          0  CROSSED:          0  USEFUL:          0  USELESS:          0
LLC AVERAGE iMISS LATENCY: 45.4919 cycles
LLC AVERAGE dMISS LATENCY: 106.911 cycles
LLC AVERAGE itMISS LATENCY: 1.53344 cycles
LLC AVERAGE dtMISS LATENCY: 4.88969 cycles
LLC PAGE CROSSINGS (TLB HIT):         0 
LLC PAGE CROSSINGS (TLB MISS):         0 
LLC AVERAGE MISS LATENCY: 158.825 cycles

PageTableWalker TOTAL       ACCESS:      79861  
PageTableWalker AVERAGE LATENCY: 4.22174 cycles
PageTableWalker TOTAL LATENCY: 337152 cycles

DRAM Statistics
Channel 0
 RQ ROW_BUFFER_HIT:     215136
  ROW_BUFFER_MISS:     544183
 AVG DBUS CONGESTED CYCLE:    3.63521
 WQ ROW_BUFFER_HIT:      20380
  ROW_BUFFER_MISS:      27132  FULL:          0

