last_page:0x200000000000000
VMEM_RES_CAP:0x100000
PAGE_SIZE:4096
LOG2_PAGE_SIZE:12
LOG2_PAGE_TABLE_SIZE:9
page_table_levels:5
WARNING: physical memory size is smaller than virtual memory size
FDiP enabled with aggresivity 16

*** ChampSim Multicore Out-of-Order Simulator ***

Warmup Instructions: 50000000
Simulation Instructions: 100000000
Number of CPUs: 1
Small page size: 4096
Large page size: 2097152

CPU 0 Bimodal branch predictor
Basic BTB sets: 1024 ways: 8 indirect buffer size: 4096 RAS size: 64
Instruction page size distrubution: 0
Loading instruction page size distribution from /home/bsc/bsc018186/scratch/itp_asplos25_AE/dump/srv45_ap.pdst
Data page size distrubution: 0
Loading data page size distribution from /home/bsc/bsc018186/scratch/itp_asplos25_AE/dump/srv45_ap.pdst
cpu0_L2C IP-based stride prefetcher
cpu0_L2C is using PTP replacement policy:
	TLB_STRESS_THRESHOLD:0
	PTE_EVICTION_RATIO:0
cpu0_L1D next line prefetcher
cpu0_STLB using iTP with max lru@8
cpu0_STLB using iTP with instr@0 and data@2
Init sat counter with 3 bits (max:50).
cpu0_L1I next line prefetcher
Off-chip DRAM Size: 4 GiB Channels: 1 Width: 64-bit Data Rate: 3200 MT/s
Heartbeat CPU 0 instructions: 10000003 cycles: 2500256 heartbeat IPC: 3.9996 cumulative IPC: 3.9996 (Simulation time: 0 hr 0 min 38 sec) 
Heartbeat CPU 0 instructions: 20000001 cycles: 5000269 heartbeat IPC: 3.99998 cumulative IPC: 3.99979 (Simulation time: 0 hr 1 min 18 sec) 
Heartbeat CPU 0 instructions: 30000002 cycles: 7500412 heartbeat IPC: 3.99978 cumulative IPC: 3.99979 (Simulation time: 0 hr 1 min 56 sec) 
Heartbeat CPU 0 instructions: 40000001 cycles: 10000413 heartbeat IPC: 4 cumulative IPC: 3.99984 (Simulation time: 0 hr 2 min 35 sec) 
Heartbeat CPU 0 instructions: 50000003 cycles: 12500488 heartbeat IPC: 3.99989 cumulative IPC: 3.99985 (Simulation time: 0 hr 3 min 15 sec) 
Warmup finished CPU 0 instructions: 50000003 cycles: 12500489 cumulative IPC: 3.99985 (Simulation time: 0 hr 3 min 15 sec) 

Warmup complete CPU 0 instructions: 50000003 cycles: 12500489 (Simulation time: 0 hr 3 min 15 sec) 

Heartbeat CPU 0 instructions: 60000000 cycles: 27536831 heartbeat IPC: 0.665056 cumulative IPC: 0.665056 (Simulation time: 0 hr 4 min 20 sec) 
Heartbeat CPU 0 instructions: 70000004 cycles: 42528172 heartbeat IPC: 0.667053 cumulative IPC: 0.666053 (Simulation time: 0 hr 5 min 29 sec) 
Heartbeat CPU 0 instructions: 80000001 cycles: 57750253 heartbeat IPC: 0.656941 cumulative IPC: 0.662987 (Simulation time: 0 hr 6 min 39 sec) 
Heartbeat CPU 0 instructions: 90000004 cycles: 72015190 heartbeat IPC: 0.70102 cumulative IPC: 0.672103 (Simulation time: 0 hr 7 min 47 sec) 
Heartbeat CPU 0 instructions: 100000000 cycles: 86714286 heartbeat IPC: 0.680314 cumulative IPC: 0.67373 (Simulation time: 0 hr 8 min 56 sec) 
*** Reached end of trace: /gpfs/projects/bsc18/MN4/bsc18/romol/ChampSim/traces/qualcomm_srv/srv45_ap.champsimtrace.xz
Heartbeat CPU 0 instructions: 110000001 cycles: 101347726 heartbeat IPC: 0.683367 cumulative IPC: 0.675317 (Simulation time: 0 hr 10 min 5 sec) 
Heartbeat CPU 0 instructions: 120000001 cycles: 115032923 heartbeat IPC: 0.730717 cumulative IPC: 0.682711 (Simulation time: 0 hr 11 min 11 sec) 
Heartbeat CPU 0 instructions: 130000000 cycles: 130505723 heartbeat IPC: 0.646296 cumulative IPC: 0.677937 (Simulation time: 0 hr 12 min 14 sec) 
Heartbeat CPU 0 instructions: 140000003 cycles: 143933969 heartbeat IPC: 0.7447 cumulative IPC: 0.684758 (Simulation time: 0 hr 13 min 20 sec) 
Heartbeat CPU 0 instructions: 150000001 cycles: 158506453 heartbeat IPC: 0.686225 cumulative IPC: 0.684904 (Simulation time: 0 hr 14 min 27 sec) 
Simulation finished CPU 0 instructions: 100000003 cycles: 146005966 cumulative IPC: 0.684904 (Simulation time: 0 hr 14 min 27 sec) 

Simulation complete CPU 0 instructions: 100000003 cycles: 146005966 (Simulation time: 0 hr 14 min 27 sec) 


ChampSim completed all CPUs

Saving instructions large page distribution to /home/bsc/bsc018186/scratch/itp_asplos25_AE/dump/srv45_ap.pdst...
Saving data large page distribution to /home/bsc/bsc018186/scratch/itp_asplos25_AE/dump/srv45_ap.pdst...
=== Simulation ===
CPU 0 runs /gpfs/projects/bsc18/MN4/bsc18/romol/ChampSim/traces/qualcomm_srv/srv45_ap.champsimtrace.xz

Region of Interest Statistics

CPU 0 cumulative IPC: 0.684904 instructions: 100000003 cycles: 146005966
CPU 0 Branch Prediction Accuracy: 82.716% MPKI: 30.931 Average ROB Occupancy at Mispredict: 12.1461
Branch type MPKI
BRANCH_DIRECT_JUMP: 1.06715
BRANCH_INDIRECT: 15.7696
BRANCH_CONDITIONAL: 10.2538
BRANCH_DIRECT_CALL: 1.93069
BRANCH_INDIRECT_CALL: 0.52669
BRANCH_RETURN: 1.38307

Instructions large pages: 0
Instructions small pages: 1017
Large page distribution for instructions: 0%

Data large pages: 0
Data small pages: 9711
Large page distribution for data: 0%

cpu0_L1I TOTAL       ACCESS:   35671201  HIT:   27149703  MISS:    8521498  iACCESS:   35671201  iHIT:   27149703  iMISS:    8521498  dACCESS:          0  dHIT:          0  dMISS:          0  itACCESS:          0  itHIT:          0  itMISS:          0  dtACCESS:          0  dtHIT:          0  dtMISS:          0
cpu0_L1I LOAD         ACCESS:   10446619  HIT:    8066238  MISS:    2380381  iACCESS:   10446619  iHIT:    8066238  iMISS:    2380381  dACCESS:          0  dHIT:          0  dMISS:          0  itACCESS:          0  itHIT:          0  itMISS:          0  dtACCESS:          0  dtHIT:          0  dtMISS:          0
cpu0_L1I RFO          ACCESS:          0  HIT:          0  MISS:          0  iACCESS:          0  iHIT:          0  iMISS:          0  dACCESS:          0  dHIT:          0  dMISS:          0  itACCESS:          0  itHIT:          0  itMISS:          0  dtACCESS:          0  dtHIT:          0  dtMISS:          0
cpu0_L1I PREFETCH     ACCESS:   25224582  HIT:   19083465  MISS:    6141117  iACCESS:   25224582  iHIT:   19083465  iMISS:    6141117  dACCESS:          0  dHIT:          0  dMISS:          0  itACCESS:          0  itHIT:          0  itMISS:          0  dtACCESS:          0  dtHIT:          0  dtMISS:          0
cpu0_L1I WRITE        ACCESS:          0  HIT:          0  MISS:          0  iACCESS:          0  iHIT:          0  iMISS:          0  dACCESS:          0  dHIT:          0  dMISS:          0  itACCESS:          0  itHIT:          0  itMISS:          0  dtACCESS:          0  dtHIT:          0  dtMISS:          0
cpu0_L1I TRANSLATION  ACCESS:          0  HIT:          0  MISS:          0  iACCESS:          0  iHIT:          0  iMISS:          0  dACCESS:          0  dHIT:          0  dMISS:          0  itACCESS:          0  itHIT:          0  itMISS:          0  dtACCESS:          0  dtHIT:          0  dtMISS:          0
cpu0_L1I PREFETCH  REQUESTED:   27492191  ISSUED:   27489684  CROSSED:          0  USEFUL:    1947886  USELESS:     629005
cpu0_L1I AVERAGE iMISS LATENCY: 14.2517 cycles
cpu0_L1I AVERAGE dMISS LATENCY: 0 cycles
cpu0_L1I AVERAGE itMISS LATENCY: 0 cycles
cpu0_L1I AVERAGE dtMISS LATENCY: 0 cycles
cpu0_L1I PAGE CROSSINGS (TLB HIT):         0 
cpu0_L1I PAGE CROSSINGS (TLB MISS):         0 
cpu0_L1I AVERAGE MISS LATENCY: 14.2517 cycles
cpu0_ITLB TOTAL       ACCESS:   29464439  HIT:   27544777  MISS:    1919662  iACCESS:   29464439  iHIT:   27544777  iMISS:    1919662  dACCESS:          0  dHIT:          0  dMISS:          0  itACCESS:          0  itHIT:          0  itMISS:          0  dtACCESS:          0  dtHIT:          0  dtMISS:          0
cpu0_ITLB LOAD         ACCESS:   29464439  HIT:   27544777  MISS:    1919662  iACCESS:   29464439  iHIT:   27544777  iMISS:    1919662  dACCESS:          0  dHIT:          0  dMISS:          0  itACCESS:          0  itHIT:          0  itMISS:          0  dtACCESS:          0  dtHIT:          0  dtMISS:          0
cpu0_ITLB RFO          ACCESS:          0  HIT:          0  MISS:          0  iACCESS:          0  iHIT:          0  iMISS:          0  dACCESS:          0  dHIT:          0  dMISS:          0  itACCESS:          0  itHIT:          0  itMISS:          0  dtACCESS:          0  dtHIT:          0  dtMISS:          0
cpu0_ITLB PREFETCH     ACCESS:          0  HIT:          0  MISS:          0  iACCESS:          0  iHIT:          0  iMISS:          0  dACCESS:          0  dHIT:          0  dMISS:          0  itACCESS:          0  itHIT:          0  itMISS:          0  dtACCESS:          0  dtHIT:          0  dtMISS:          0
cpu0_ITLB WRITE        ACCESS:          0  HIT:          0  MISS:          0  iACCESS:          0  iHIT:          0  iMISS:          0  dACCESS:          0  dHIT:          0  dMISS:          0  itACCESS:          0  itHIT:          0  itMISS:          0  dtACCESS:          0  dtHIT:          0  dtMISS:          0
cpu0_ITLB TRANSLATION  ACCESS:          0  HIT:          0  MISS:          0  iACCESS:          0  iHIT:          0  iMISS:          0  dACCESS:          0  dHIT:          0  dMISS:          0  itACCESS:          0  itHIT:          0  itMISS:          0  dtACCESS:          0  dtHIT:          0  dtMISS:          0
cpu0_ITLB PREFETCH  REQUESTED:          0  ISSUED:          0  CROSSED:          0  USEFUL:     317967  USELESS:      63063
cpu0_ITLB AVERAGE iMISS LATENCY: 2.03708 cycles
cpu0_ITLB AVERAGE dMISS LATENCY: 0 cycles
cpu0_ITLB AVERAGE itMISS LATENCY: 0 cycles
cpu0_ITLB AVERAGE dtMISS LATENCY: 0 cycles
cpu0_ITLB PAGE CROSSINGS (TLB HIT):         0 
cpu0_ITLB PAGE CROSSINGS (TLB MISS):         0 
cpu0_ITLB AVERAGE MISS LATENCY: 2.03708 cycles
cpu0_DTLB TOTAL       ACCESS:   27766415  HIT:   25683616  MISS:    2082799  iACCESS:          0  iHIT:          0  iMISS:          0  dACCESS:   27766415  dHIT:   25683616  dMISS:    2082799  itACCESS:          0  itHIT:          0  itMISS:          0  dtACCESS:          0  dtHIT:          0  dtMISS:          0
cpu0_DTLB LOAD         ACCESS:   27766415  HIT:   25683616  MISS:    2082799  iACCESS:          0  iHIT:          0  iMISS:          0  dACCESS:   27766415  dHIT:   25683616  dMISS:    2082799  itACCESS:          0  itHIT:          0  itMISS:          0  dtACCESS:          0  dtHIT:          0  dtMISS:          0
cpu0_DTLB RFO          ACCESS:          0  HIT:          0  MISS:          0  iACCESS:          0  iHIT:          0  iMISS:          0  dACCESS:          0  dHIT:          0  dMISS:          0  itACCESS:          0  itHIT:          0  itMISS:          0  dtACCESS:          0  dtHIT:          0  dtMISS:          0
cpu0_DTLB PREFETCH     ACCESS:          0  HIT:          0  MISS:          0  iACCESS:          0  iHIT:          0  iMISS:          0  dACCESS:          0  dHIT:          0  dMISS:          0  itACCESS:          0  itHIT:          0  itMISS:          0  dtACCESS:          0  dtHIT:          0  dtMISS:          0
cpu0_DTLB WRITE        ACCESS:          0  HIT:          0  MISS:          0  iACCESS:          0  iHIT:          0  iMISS:          0  dACCESS:          0  dHIT:          0  dMISS:          0  itACCESS:          0  itHIT:          0  itMISS:          0  dtACCESS:          0  dtHIT:          0  dtMISS:          0
cpu0_DTLB TRANSLATION  ACCESS:          0  HIT:          0  MISS:          0  iACCESS:          0  iHIT:          0  iMISS:          0  dACCESS:          0  dHIT:          0  dMISS:          0  itACCESS:          0  itHIT:          0  itMISS:          0  dtACCESS:          0  dtHIT:          0  dtMISS:          0
cpu0_DTLB PREFETCH  REQUESTED:          0  ISSUED:          0  CROSSED:          0  USEFUL:          0  USELESS:          0
cpu0_DTLB AVERAGE iMISS LATENCY: 0 cycles
cpu0_DTLB AVERAGE dMISS LATENCY: 10.0803 cycles
cpu0_DTLB AVERAGE itMISS LATENCY: 0 cycles
cpu0_DTLB AVERAGE dtMISS LATENCY: 0 cycles
cpu0_DTLB PAGE CROSSINGS (TLB HIT):         0 
cpu0_DTLB PAGE CROSSINGS (TLB MISS):         0 
cpu0_DTLB AVERAGE MISS LATENCY: 10.0803 cycles
cpu0_STLB TOTAL       ACCESS:    1625709  HIT:    1476493  MISS:     149216  iACCESS:     381066  iHIT:     371010  iMISS:      10056  dACCESS:    1244643  dHIT:    1105483  dMISS:     139160  itACCESS:          0  itHIT:          0  itMISS:          0  dtACCESS:          0  dtHIT:          0  dtMISS:          0
cpu0_STLB LOAD         ACCESS:    1625709  HIT:    1476493  MISS:     149216  iACCESS:     381066  iHIT:     371010  iMISS:      10056  dACCESS:    1244643  dHIT:    1105483  dMISS:     139160  itACCESS:          0  itHIT:          0  itMISS:          0  dtACCESS:          0  dtHIT:          0  dtMISS:          0
cpu0_STLB RFO          ACCESS:          0  HIT:          0  MISS:          0  iACCESS:          0  iHIT:          0  iMISS:          0  dACCESS:          0  dHIT:          0  dMISS:          0  itACCESS:          0  itHIT:          0  itMISS:          0  dtACCESS:          0  dtHIT:          0  dtMISS:          0
cpu0_STLB PREFETCH     ACCESS:          0  HIT:          0  MISS:          0  iACCESS:          0  iHIT:          0  iMISS:          0  dACCESS:          0  dHIT:          0  dMISS:          0  itACCESS:          0  itHIT:          0  itMISS:          0  dtACCESS:          0  dtHIT:          0  dtMISS:          0
cpu0_STLB WRITE        ACCESS:          0  HIT:          0  MISS:          0  iACCESS:          0  iHIT:          0  iMISS:          0  dACCESS:          0  dHIT:          0  dMISS:          0  itACCESS:          0  itHIT:          0  itMISS:          0  dtACCESS:          0  dtHIT:          0  dtMISS:          0
cpu0_STLB TRANSLATION  ACCESS:          0  HIT:          0  MISS:          0  iACCESS:          0  iHIT:          0  iMISS:          0  dACCESS:          0  dHIT:          0  dMISS:          0  itACCESS:          0  itHIT:          0  itMISS:          0  dtACCESS:          0  dtHIT:          0  dtMISS:          0
cpu0_STLB PREFETCH  REQUESTED:          0  ISSUED:          0  CROSSED:          0  USEFUL:          0  USELESS:          0
cpu0_STLB AVERAGE iMISS LATENCY: 6.39945 cycles
cpu0_STLB AVERAGE dMISS LATENCY: 74.1151 cycles
cpu0_STLB AVERAGE itMISS LATENCY: 0 cycles
cpu0_STLB AVERAGE dtMISS LATENCY: 0 cycles
cpu0_STLB PAGE CROSSINGS (TLB HIT):         0 
cpu0_STLB PAGE CROSSINGS (TLB MISS):         0 
cpu0_STLB AVERAGE MISS LATENCY: 80.5146 cycles
cpu0_L1D TOTAL       ACCESS:   41625545  HIT:   38102133  MISS:    3523412  iACCESS:          0  iHIT:          0  iMISS:          0  dACCESS:   41405699  dHIT:   38088483  dMISS:    3317216  itACCESS:      11699  itHIT:        917  itMISS:      10782  dtACCESS:     208147  dtHIT:      12733  dtMISS:     195414
cpu0_L1D LOAD         ACCESS:   18971969  HIT:   17468924  MISS:    1503045  iACCESS:          0  iHIT:          0  iMISS:          0  dACCESS:   18971969  dHIT:   17468924  dMISS:    1503045  itACCESS:          0  itHIT:          0  itMISS:          0  dtACCESS:          0  dtHIT:          0  dtMISS:          0
cpu0_L1D RFO          ACCESS:          0  HIT:          0  MISS:          0  iACCESS:          0  iHIT:          0  iMISS:          0  dACCESS:          0  dHIT:          0  dMISS:          0  itACCESS:          0  itHIT:          0  itMISS:          0  dtACCESS:          0  dtHIT:          0  dtMISS:          0
cpu0_L1D PREFETCH     ACCESS:   12254593  HIT:   10878074  MISS:    1376519  iACCESS:          0  iHIT:          0  iMISS:          0  dACCESS:   12254593  dHIT:   10878074  dMISS:    1376519  itACCESS:          0  itHIT:          0  itMISS:          0  dtACCESS:          0  dtHIT:          0  dtMISS:          0
cpu0_L1D WRITE        ACCESS:   10179137  HIT:    9741485  MISS:     437652  iACCESS:          0  iHIT:          0  iMISS:          0  dACCESS:   10179137  dHIT:    9741485  dMISS:     437652  itACCESS:          0  itHIT:          0  itMISS:          0  dtACCESS:          0  dtHIT:          0  dtMISS:          0
cpu0_L1D TRANSLATION  ACCESS:     219846  HIT:      13650  MISS:     206196  iACCESS:          0  iHIT:          0  iMISS:          0  dACCESS:          0  dHIT:          0  dMISS:          0  itACCESS:      11699  itHIT:        917  itMISS:      10782  dtACCESS:     208147  dtHIT:      12733  dtMISS:     195414
cpu0_L1D PREFETCH  REQUESTED:   18971969  ISSUED:   17086965  CROSSED:          0  USEFUL:     306025  USELESS:     701757
cpu0_L1D AVERAGE iMISS LATENCY: 0 cycles
cpu0_L1D AVERAGE dMISS LATENCY: 36.6842 cycles
cpu0_L1D AVERAGE itMISS LATENCY: 0.237973 cycles
cpu0_L1D AVERAGE dtMISS LATENCY: 2.35863 cycles
cpu0_L1D PAGE CROSSINGS (TLB HIT):         0 
cpu0_L1D PAGE CROSSINGS (TLB MISS):         0 
cpu0_L1D AVERAGE MISS LATENCY: 39.2808 cycles
cpu0_L2C TOTAL       ACCESS:    7006625  HIT:    1206398  MISS:    5800227  iACCESS:    3309922  iHIT:     685658  iMISS:    2624264  dACCESS:    3501592  dHIT:     374815  dMISS:    3126777  itACCESS:      10782  itHIT:       5038  itMISS:       5744  dtACCESS:     184329  dtHIT:     140887  dtMISS:      43442
cpu0_L2C LOAD         ACCESS:    1697195  HIT:     124399  MISS:    1572796  iACCESS:     770847  iHIT:      88228  iMISS:     682619  dACCESS:     926348  dHIT:      36171  dMISS:     890177  itACCESS:          0  itHIT:          0  itMISS:          0  dtACCESS:          0  dtHIT:          0  dtMISS:          0
cpu0_L2C RFO          ACCESS:     158574  HIT:       8217  MISS:     150357  iACCESS:          0  iHIT:          0  iMISS:          0  dACCESS:     158574  dHIT:       8217  dMISS:     150357  itACCESS:          0  itHIT:          0  itMISS:          0  dtACCESS:          0  dtHIT:          0  dtMISS:          0
cpu0_L2C PREFETCH     ACCESS:    4676671  HIT:     870064  MISS:    3806607  iACCESS:    2539075  iHIT:     597430  iMISS:    1941645  dACCESS:    2137596  dHIT:     272634  dMISS:    1864962  itACCESS:          0  itHIT:          0  itMISS:          0  dtACCESS:          0  dtHIT:          0  dtMISS:          0
cpu0_L2C WRITE        ACCESS:     279074  HIT:      57793  MISS:     221281  iACCESS:          0  iHIT:          0  iMISS:          0  dACCESS:     279074  dHIT:      57793  dMISS:     221281  itACCESS:          0  itHIT:          0  itMISS:          0  dtACCESS:          0  dtHIT:          0  dtMISS:          0
cpu0_L2C TRANSLATION  ACCESS:     195111  HIT:     145925  MISS:      49186  iACCESS:          0  iHIT:          0  iMISS:          0  dACCESS:          0  dHIT:          0  dMISS:          0  itACCESS:      10782  itHIT:       5038  itMISS:       5744  dtACCESS:     184329  dtHIT:     140887  dtMISS:      43442
cpu0_L2C PREFETCH  REQUESTED:    1391440  ISSUED:    1391440  CROSSED:          0  USEFUL:     427030  USELESS:     398334
cpu0_L2C AVERAGE iMISS LATENCY: 15.6187 cycles
cpu0_L2C AVERAGE dMISS LATENCY: 26.4267 cycles
cpu0_L2C AVERAGE itMISS LATENCY: 0.126803 cycles
cpu0_L2C AVERAGE dtMISS LATENCY: 1.13775 cycles
cpu0_L2C PAGE CROSSINGS (TLB HIT):         0 
cpu0_L2C PAGE CROSSINGS (TLB MISS):         0 
cpu0_L2C AVERAGE MISS LATENCY: 43.3099 cycles
LLC TOTAL       ACCESS:    5712400  HIT:    4796623  MISS:     915777  iACCESS:    2566205  iHIT:    2286420  iMISS:     279785  dACCESS:    3097009  dHIT:    2497071  dMISS:     599938  itACCESS:       5744  itHIT:       2105  itMISS:       3639  dtACCESS:      43442  dtHIT:      11027  dtMISS:      32415
LLC LOAD         ACCESS:    1570930  HIT:    1361711  MISS:     209219  iACCESS:     681354  iHIT:     624059  iMISS:      57295  dACCESS:     889576  dHIT:     737652  dMISS:     151924  itACCESS:          0  itHIT:          0  itMISS:          0  dtACCESS:          0  dtHIT:          0  dtMISS:          0
LLC RFO          ACCESS:     150354  HIT:     108933  MISS:      41421  iACCESS:          0  iHIT:          0  iMISS:          0  dACCESS:     150354  dHIT:     108933  dMISS:      41421  itACCESS:          0  itHIT:          0  itMISS:          0  dtACCESS:          0  dtHIT:          0  dtMISS:          0
LLC PREFETCH     ACCESS:    3687145  HIT:    3058062  MISS:     629083  iACCESS:    1884851  iHIT:    1662361  iMISS:     222490  dACCESS:    1802294  dHIT:    1395701  dMISS:     406593  itACCESS:          0  itHIT:          0  itMISS:          0  dtACCESS:          0  dtHIT:          0  dtMISS:          0
LLC WRITE        ACCESS:     254785  HIT:     254785  MISS:          0  iACCESS:          0  iHIT:          0  iMISS:          0  dACCESS:     254785  dHIT:     254785  dMISS:          0  itACCESS:          0  itHIT:          0  itMISS:          0  dtACCESS:          0  dtHIT:          0  dtMISS:          0
LLC TRANSLATION  ACCESS:      49186  HIT:      13132  MISS:      36054  iACCESS:          0  iHIT:          0  iMISS:          0  dACCESS:          0  dHIT:          0  dMISS:          0  itACCESS:       5744  itHIT:       2105  itMISS:       3639  dtACCESS:      43442  dtHIT:      11027  dtMISS:      32415
LLC PREFETCH  REQUESTED:          0  ISSUED:          0  CROSSED:          0  USEFUL:          0  USELESS:          0
LLC AVERAGE iMISS LATENCY: 44.8443 cycles
LLC AVERAGE dMISS LATENCY: 107.453 cycles
LLC AVERAGE itMISS LATENCY: 0.680259 cycles
LLC AVERAGE dtMISS LATENCY: 6.27234 cycles
LLC PAGE CROSSINGS (TLB HIT):         0 
LLC PAGE CROSSINGS (TLB MISS):         0 
LLC AVERAGE MISS LATENCY: 159.249 cycles

PageTableWalker TOTAL       ACCESS:      73697  
PageTableWalker AVERAGE LATENCY: 4.70465 cycles
PageTableWalker TOTAL LATENCY: 346718 cycles

DRAM Statistics
Channel 0
 RQ ROW_BUFFER_HIT:     262752
  ROW_BUFFER_MISS:     652945
 AVG DBUS CONGESTED CYCLE:    3.63372
 WQ ROW_BUFFER_HIT:      22199
  ROW_BUFFER_MISS:      30384  FULL:          0

