last_page:0x200000000000000
VMEM_RES_CAP:0x100000
PAGE_SIZE:4096
LOG2_PAGE_SIZE:12
LOG2_PAGE_TABLE_SIZE:9
page_table_levels:5
WARNING: physical memory size is smaller than virtual memory size
FDiP enabled with aggresivity 16

*** ChampSim Multicore Out-of-Order Simulator ***

Warmup Instructions: 50000000
Simulation Instructions: 100000000
Number of CPUs: 1
Small page size: 4096
Large page size: 2097152

CPU 0 Bimodal branch predictor
Basic BTB sets: 1024 ways: 8 indirect buffer size: 4096 RAS size: 64
Instruction page size distrubution: 0
Loading instruction page size distribution from /home/bsc/bsc018186/scratch/itp_asplos25_AE/dump/srv408_ap.pdst
Data page size distrubution: 0
Loading data page size distribution from /home/bsc/bsc018186/scratch/itp_asplos25_AE/dump/srv408_ap.pdst
cpu0_L2C IP-based stride prefetcher
cpu0_L1D next line prefetcher
cpu0_STLB using iTP with max lru@8
cpu0_STLB using iTP with instr@0 and data@2
Init sat counter with 3 bits (max:50).
cpu0_L1I next line prefetcher
Off-chip DRAM Size: 4 GiB Channels: 1 Width: 64-bit Data Rate: 3200 MT/s
Heartbeat CPU 0 instructions: 10000000 cycles: 2511065 heartbeat IPC: 3.98238 cumulative IPC: 3.98238 (Simulation time: 0 hr 0 min 37 sec) 
Heartbeat CPU 0 instructions: 20000004 cycles: 5557258 heartbeat IPC: 3.28279 cumulative IPC: 3.5989 (Simulation time: 0 hr 1 min 17 sec) 
Heartbeat CPU 0 instructions: 30000003 cycles: 8089775 heartbeat IPC: 3.94865 cumulative IPC: 3.70839 (Simulation time: 0 hr 1 min 57 sec) 
Heartbeat CPU 0 instructions: 40000002 cycles: 10589815 heartbeat IPC: 3.99994 cumulative IPC: 3.77722 (Simulation time: 0 hr 2 min 37 sec) 
Heartbeat CPU 0 instructions: 50000001 cycles: 13089889 heartbeat IPC: 3.99989 cumulative IPC: 3.81975 (Simulation time: 0 hr 3 min 18 sec) 
Warmup finished CPU 0 instructions: 50000001 cycles: 13089890 cumulative IPC: 3.81975 (Simulation time: 0 hr 3 min 18 sec) 

Warmup complete CPU 0 instructions: 50000001 cycles: 13089890 (Simulation time: 0 hr 3 min 18 sec) 

Heartbeat CPU 0 instructions: 60000002 cycles: 32422861 heartbeat IPC: 0.517252 cumulative IPC: 0.517252 (Simulation time: 0 hr 4 min 28 sec) 
Heartbeat CPU 0 instructions: 70000002 cycles: 52145035 heartbeat IPC: 0.507044 cumulative IPC: 0.512097 (Simulation time: 0 hr 5 min 40 sec) 
Heartbeat CPU 0 instructions: 80000004 cycles: 71300243 heartbeat IPC: 0.522052 cumulative IPC: 0.515373 (Simulation time: 0 hr 6 min 50 sec) 
Heartbeat CPU 0 instructions: 90000000 cycles: 91193827 heartbeat IPC: 0.502675 cumulative IPC: 0.512139 (Simulation time: 0 hr 8 min 4 sec) 
Heartbeat CPU 0 instructions: 100000000 cycles: 107478042 heartbeat IPC: 0.614092 cumulative IPC: 0.529728 (Simulation time: 0 hr 9 min 14 sec) 
*** Reached end of trace: /gpfs/projects/bsc18/MN4/bsc18/romol/ChampSim/traces/qualcomm_srv/srv408_ap.champsimtrace.xz
Heartbeat CPU 0 instructions: 110000000 cycles: 123292648 heartbeat IPC: 0.632327 cumulative IPC: 0.544451 (Simulation time: 0 hr 10 min 22 sec) 
Heartbeat CPU 0 instructions: 120000001 cycles: 133484550 heartbeat IPC: 0.981172 cumulative IPC: 0.581422 (Simulation time: 0 hr 11 min 25 sec) 
Heartbeat CPU 0 instructions: 130000000 cycles: 148640285 heartbeat IPC: 0.659817 cumulative IPC: 0.590187 (Simulation time: 0 hr 12 min 33 sec) 
Heartbeat CPU 0 instructions: 140000000 cycles: 167801832 heartbeat IPC: 0.521879 cumulative IPC: 0.581727 (Simulation time: 0 hr 13 min 45 sec) 
Heartbeat CPU 0 instructions: 150000000 cycles: 187967117 heartbeat IPC: 0.495902 cumulative IPC: 0.57183 (Simulation time: 0 hr 14 min 59 sec) 
Simulation finished CPU 0 instructions: 100000003 cycles: 174877229 cumulative IPC: 0.57183 (Simulation time: 0 hr 14 min 59 sec) 

Simulation complete CPU 0 instructions: 100000003 cycles: 174877229 (Simulation time: 0 hr 14 min 59 sec) 


ChampSim completed all CPUs

Saving instructions large page distribution to /home/bsc/bsc018186/scratch/itp_asplos25_AE/dump/srv408_ap.pdst...
Saving data large page distribution to /home/bsc/bsc018186/scratch/itp_asplos25_AE/dump/srv408_ap.pdst...
=== Simulation ===
CPU 0 runs /gpfs/projects/bsc18/MN4/bsc18/romol/ChampSim/traces/qualcomm_srv/srv408_ap.champsimtrace.xz

Region of Interest Statistics

CPU 0 cumulative IPC: 0.57183 instructions: 100000003 cycles: 174877229
CPU 0 Branch Prediction Accuracy: 83.374% MPKI: 33.2918 Average ROB Occupancy at Mispredict: 12.2047
Branch type MPKI
BRANCH_DIRECT_JUMP: 1.27822
BRANCH_INDIRECT: 16.7581
BRANCH_CONDITIONAL: 10.3962
BRANCH_DIRECT_CALL: 2.47861
BRANCH_INDIRECT_CALL: 0.71517
BRANCH_RETURN: 1.66558

Instructions large pages: 0
Instructions small pages: 1151
Large page distribution for instructions: 0%

Data large pages: 0
Data small pages: 4656
Large page distribution for data: 0%

cpu0_L1I TOTAL       ACCESS:   35193966  HIT:   28065748  MISS:    7128218  iACCESS:   35193966  iHIT:   28065748  iMISS:    7128218  dACCESS:          0  dHIT:          0  dMISS:          0  itACCESS:          0  itHIT:          0  itMISS:          0  dtACCESS:          0  dtHIT:          0  dtMISS:          0
cpu0_L1I LOAD         ACCESS:    9039123  HIT:    7096132  MISS:    1942991  iACCESS:    9039123  iHIT:    7096132  iMISS:    1942991  dACCESS:          0  dHIT:          0  dMISS:          0  itACCESS:          0  itHIT:          0  itMISS:          0  dtACCESS:          0  dtHIT:          0  dtMISS:          0
cpu0_L1I RFO          ACCESS:          0  HIT:          0  MISS:          0  iACCESS:          0  iHIT:          0  iMISS:          0  dACCESS:          0  dHIT:          0  dMISS:          0  itACCESS:          0  itHIT:          0  itMISS:          0  dtACCESS:          0  dtHIT:          0  dtMISS:          0
cpu0_L1I PREFETCH     ACCESS:   26154843  HIT:   20969616  MISS:    5185227  iACCESS:   26154843  iHIT:   20969616  iMISS:    5185227  dACCESS:          0  dHIT:          0  dMISS:          0  itACCESS:          0  itHIT:          0  itMISS:          0  dtACCESS:          0  dtHIT:          0  dtMISS:          0
cpu0_L1I WRITE        ACCESS:          0  HIT:          0  MISS:          0  iACCESS:          0  iHIT:          0  iMISS:          0  dACCESS:          0  dHIT:          0  dMISS:          0  itACCESS:          0  itHIT:          0  itMISS:          0  dtACCESS:          0  dtHIT:          0  dtMISS:          0
cpu0_L1I TRANSLATION  ACCESS:          0  HIT:          0  MISS:          0  iACCESS:          0  iHIT:          0  iMISS:          0  dACCESS:          0  dHIT:          0  dMISS:          0  itACCESS:          0  itHIT:          0  itMISS:          0  dtACCESS:          0  dtHIT:          0  dtMISS:          0
cpu0_L1I PREFETCH  REQUESTED:   28097182  ISSUED:   28095943  CROSSED:          0  USEFUL:    1731594  USELESS:     567895
cpu0_L1I AVERAGE iMISS LATENCY: 19.9157 cycles
cpu0_L1I AVERAGE dMISS LATENCY: 0 cycles
cpu0_L1I AVERAGE itMISS LATENCY: 0 cycles
cpu0_L1I AVERAGE dtMISS LATENCY: 0 cycles
cpu0_L1I PAGE CROSSINGS (TLB HIT):         0 
cpu0_L1I PAGE CROSSINGS (TLB MISS):         0 
cpu0_L1I AVERAGE MISS LATENCY: 19.9157 cycles
cpu0_ITLB TOTAL       ACCESS:   29577785  HIT:   27937871  MISS:    1639914  iACCESS:   29577785  iHIT:   27937871  iMISS:    1639914  dACCESS:          0  dHIT:          0  dMISS:          0  itACCESS:          0  itHIT:          0  itMISS:          0  dtACCESS:          0  dtHIT:          0  dtMISS:          0
cpu0_ITLB LOAD         ACCESS:   29577785  HIT:   27937871  MISS:    1639914  iACCESS:   29577785  iHIT:   27937871  iMISS:    1639914  dACCESS:          0  dHIT:          0  dMISS:          0  itACCESS:          0  itHIT:          0  itMISS:          0  dtACCESS:          0  dtHIT:          0  dtMISS:          0
cpu0_ITLB RFO          ACCESS:          0  HIT:          0  MISS:          0  iACCESS:          0  iHIT:          0  iMISS:          0  dACCESS:          0  dHIT:          0  dMISS:          0  itACCESS:          0  itHIT:          0  itMISS:          0  dtACCESS:          0  dtHIT:          0  dtMISS:          0
cpu0_ITLB PREFETCH     ACCESS:          0  HIT:          0  MISS:          0  iACCESS:          0  iHIT:          0  iMISS:          0  dACCESS:          0  dHIT:          0  dMISS:          0  itACCESS:          0  itHIT:          0  itMISS:          0  dtACCESS:          0  dtHIT:          0  dtMISS:          0
cpu0_ITLB WRITE        ACCESS:          0  HIT:          0  MISS:          0  iACCESS:          0  iHIT:          0  iMISS:          0  dACCESS:          0  dHIT:          0  dMISS:          0  itACCESS:          0  itHIT:          0  itMISS:          0  dtACCESS:          0  dtHIT:          0  dtMISS:          0
cpu0_ITLB TRANSLATION  ACCESS:          0  HIT:          0  MISS:          0  iACCESS:          0  iHIT:          0  iMISS:          0  dACCESS:          0  dHIT:          0  dMISS:          0  itACCESS:          0  itHIT:          0  itMISS:          0  dtACCESS:          0  dtHIT:          0  dtMISS:          0
cpu0_ITLB PREFETCH  REQUESTED:          0  ISSUED:          0  CROSSED:          0  USEFUL:     286215  USELESS:      55142
cpu0_ITLB AVERAGE iMISS LATENCY: 3.22629 cycles
cpu0_ITLB AVERAGE dMISS LATENCY: 0 cycles
cpu0_ITLB AVERAGE itMISS LATENCY: 0 cycles
cpu0_ITLB AVERAGE dtMISS LATENCY: 0 cycles
cpu0_ITLB PAGE CROSSINGS (TLB HIT):         0 
cpu0_ITLB PAGE CROSSINGS (TLB MISS):         0 
cpu0_ITLB AVERAGE MISS LATENCY: 3.22629 cycles
cpu0_DTLB TOTAL       ACCESS:   30704741  HIT:   25353484  MISS:    5351257  iACCESS:          0  iHIT:          0  iMISS:          0  dACCESS:   30704741  dHIT:   25353484  dMISS:    5351257  itACCESS:          0  itHIT:          0  itMISS:          0  dtACCESS:          0  dtHIT:          0  dtMISS:          0
cpu0_DTLB LOAD         ACCESS:   30704741  HIT:   25353484  MISS:    5351257  iACCESS:          0  iHIT:          0  iMISS:          0  dACCESS:   30704741  dHIT:   25353484  dMISS:    5351257  itACCESS:          0  itHIT:          0  itMISS:          0  dtACCESS:          0  dtHIT:          0  dtMISS:          0
cpu0_DTLB RFO          ACCESS:          0  HIT:          0  MISS:          0  iACCESS:          0  iHIT:          0  iMISS:          0  dACCESS:          0  dHIT:          0  dMISS:          0  itACCESS:          0  itHIT:          0  itMISS:          0  dtACCESS:          0  dtHIT:          0  dtMISS:          0
cpu0_DTLB PREFETCH     ACCESS:          0  HIT:          0  MISS:          0  iACCESS:          0  iHIT:          0  iMISS:          0  dACCESS:          0  dHIT:          0  dMISS:          0  itACCESS:          0  itHIT:          0  itMISS:          0  dtACCESS:          0  dtHIT:          0  dtMISS:          0
cpu0_DTLB WRITE        ACCESS:          0  HIT:          0  MISS:          0  iACCESS:          0  iHIT:          0  iMISS:          0  dACCESS:          0  dHIT:          0  dMISS:          0  itACCESS:          0  itHIT:          0  itMISS:          0  dtACCESS:          0  dtHIT:          0  dtMISS:          0
cpu0_DTLB TRANSLATION  ACCESS:          0  HIT:          0  MISS:          0  iACCESS:          0  iHIT:          0  iMISS:          0  dACCESS:          0  dHIT:          0  dMISS:          0  itACCESS:          0  itHIT:          0  itMISS:          0  dtACCESS:          0  dtHIT:          0  dtMISS:          0
cpu0_DTLB PREFETCH  REQUESTED:          0  ISSUED:          0  CROSSED:          0  USEFUL:          0  USELESS:          0
cpu0_DTLB AVERAGE iMISS LATENCY: 0 cycles
cpu0_DTLB AVERAGE dMISS LATENCY: 7.0824 cycles
cpu0_DTLB AVERAGE itMISS LATENCY: 0 cycles
cpu0_DTLB AVERAGE dtMISS LATENCY: 0 cycles
cpu0_DTLB PAGE CROSSINGS (TLB HIT):         0 
cpu0_DTLB PAGE CROSSINGS (TLB MISS):         0 
cpu0_DTLB AVERAGE MISS LATENCY: 7.0824 cycles
cpu0_STLB TOTAL       ACCESS:    3097706  HIT:    2906903  MISS:     190803  iACCESS:     341377  iHIT:     311671  iMISS:      29706  dACCESS:    2756329  dHIT:    2595232  dMISS:     161097  itACCESS:          0  itHIT:          0  itMISS:          0  dtACCESS:          0  dtHIT:          0  dtMISS:          0
cpu0_STLB LOAD         ACCESS:    3097706  HIT:    2906903  MISS:     190803  iACCESS:     341377  iHIT:     311671  iMISS:      29706  dACCESS:    2756329  dHIT:    2595232  dMISS:     161097  itACCESS:          0  itHIT:          0  itMISS:          0  dtACCESS:          0  dtHIT:          0  dtMISS:          0
cpu0_STLB RFO          ACCESS:          0  HIT:          0  MISS:          0  iACCESS:          0  iHIT:          0  iMISS:          0  dACCESS:          0  dHIT:          0  dMISS:          0  itACCESS:          0  itHIT:          0  itMISS:          0  dtACCESS:          0  dtHIT:          0  dtMISS:          0
cpu0_STLB PREFETCH     ACCESS:          0  HIT:          0  MISS:          0  iACCESS:          0  iHIT:          0  iMISS:          0  dACCESS:          0  dHIT:          0  dMISS:          0  itACCESS:          0  itHIT:          0  itMISS:          0  dtACCESS:          0  dtHIT:          0  dtMISS:          0
cpu0_STLB WRITE        ACCESS:          0  HIT:          0  MISS:          0  iACCESS:          0  iHIT:          0  iMISS:          0  dACCESS:          0  dHIT:          0  dMISS:          0  itACCESS:          0  itHIT:          0  itMISS:          0  dtACCESS:          0  dtHIT:          0  dtMISS:          0
cpu0_STLB TRANSLATION  ACCESS:          0  HIT:          0  MISS:          0  iACCESS:          0  iHIT:          0  iMISS:          0  dACCESS:          0  dHIT:          0  dMISS:          0  itACCESS:          0  itHIT:          0  itMISS:          0  dtACCESS:          0  dtHIT:          0  dtMISS:          0
cpu0_STLB PREFETCH  REQUESTED:          0  ISSUED:          0  CROSSED:          0  USEFUL:          0  USELESS:          0
cpu0_STLB AVERAGE iMISS LATENCY: 13.7497 cycles
cpu0_STLB AVERAGE dMISS LATENCY: 81.5682 cycles
cpu0_STLB AVERAGE itMISS LATENCY: 0 cycles
cpu0_STLB AVERAGE dtMISS LATENCY: 0 cycles
cpu0_STLB PAGE CROSSINGS (TLB HIT):         0 
cpu0_STLB PAGE CROSSINGS (TLB MISS):         0 
cpu0_STLB AVERAGE MISS LATENCY: 95.3179 cycles
cpu0_L1D TOTAL       ACCESS:   47759459  HIT:   39355142  MISS:    8404317  iACCESS:          0  iHIT:          0  iMISS:          0  dACCESS:   47498718  dHIT:   39338799  dMISS:    8159919  itACCESS:      33786  itHIT:       3102  itMISS:      30684  dtACCESS:     226955  dtHIT:      13241  dtMISS:     213714
cpu0_L1D LOAD         ACCESS:   23482597  HIT:   18558585  MISS:    4924012  iACCESS:          0  iHIT:          0  iMISS:          0  dACCESS:   23482597  dHIT:   18558585  dMISS:    4924012  itACCESS:          0  itHIT:          0  itMISS:          0  dtACCESS:          0  dtHIT:          0  dtMISS:          0
cpu0_L1D RFO          ACCESS:          0  HIT:          0  MISS:          0  iACCESS:          0  iHIT:          0  iMISS:          0  dACCESS:          0  dHIT:          0  dMISS:          0  itACCESS:          0  itHIT:          0  itMISS:          0  dtACCESS:          0  dtHIT:          0  dtMISS:          0
cpu0_L1D PREFETCH     ACCESS:   14430190  HIT:   11633657  MISS:    2796533  iACCESS:          0  iHIT:          0  iMISS:          0  dACCESS:   14430190  dHIT:   11633657  dMISS:    2796533  itACCESS:          0  itHIT:          0  itMISS:          0  dtACCESS:          0  dtHIT:          0  dtMISS:          0
cpu0_L1D WRITE        ACCESS:    9585931  HIT:    9146557  MISS:     439374  iACCESS:          0  iHIT:          0  iMISS:          0  dACCESS:    9585931  dHIT:    9146557  dMISS:     439374  itACCESS:          0  itHIT:          0  itMISS:          0  dtACCESS:          0  dtHIT:          0  dtMISS:          0
cpu0_L1D TRANSLATION  ACCESS:     260741  HIT:      16343  MISS:     244398  iACCESS:          0  iHIT:          0  iMISS:          0  dACCESS:          0  dHIT:          0  dMISS:          0  itACCESS:      33786  itHIT:       3102  itMISS:      30684  dtACCESS:     226955  dtHIT:      13241  dtMISS:     213714
cpu0_L1D PREFETCH  REQUESTED:   23482597  ISSUED:   17804481  CROSSED:          0  USEFUL:     259383  USELESS:     847972
cpu0_L1D AVERAGE iMISS LATENCY: 0 cycles
cpu0_L1D AVERAGE dMISS LATENCY: 23.2306 cycles
cpu0_L1D AVERAGE itMISS LATENCY: 0.27722 cycles
cpu0_L1D AVERAGE dtMISS LATENCY: 1.59705 cycles
cpu0_L1D PAGE CROSSINGS (TLB HIT):         0 
cpu0_L1D PAGE CROSSINGS (TLB MISS):         0 
cpu0_L1D AVERAGE MISS LATENCY: 25.1049 cycles
cpu0_L2C TOTAL       ACCESS:    8974317  HIT:    2852761  MISS:    6121556  iACCESS:    2917687  iHIT:     692796  iMISS:    2224891  dACCESS:    5821194  dHIT:    2031449  dMISS:    3789745  itACCESS:      30666  itHIT:      16543  itMISS:      14123  dtACCESS:     204770  dtHIT:     111973  dtMISS:      92797
cpu0_L2C LOAD         ACCESS:    3823999  HIT:    1495193  MISS:    2328806  iACCESS:     648891  iHIT:     103471  iMISS:     545420  dACCESS:    3175108  dHIT:    1391722  dMISS:    1783386  itACCESS:          0  itHIT:          0  itMISS:          0  dtACCESS:          0  dtHIT:          0  dtMISS:          0
cpu0_L2C RFO          ACCESS:     178914  HIT:      66721  MISS:     112193  iACCESS:          0  iHIT:          0  iMISS:          0  dACCESS:     178914  dHIT:      66721  dMISS:     112193  itACCESS:          0  itHIT:          0  itMISS:          0  dtACCESS:          0  dtHIT:          0  dtMISS:          0
cpu0_L2C PREFETCH     ACCESS:    4502661  HIT:    1059744  MISS:    3442917  iACCESS:    2268796  iHIT:     589325  iMISS:    1679471  dACCESS:    2233865  dHIT:     470419  dMISS:    1763446  itACCESS:          0  itHIT:          0  itMISS:          0  dtACCESS:          0  dtHIT:          0  dtMISS:          0
cpu0_L2C WRITE        ACCESS:     233307  HIT:     102587  MISS:     130720  iACCESS:          0  iHIT:          0  iMISS:          0  dACCESS:     233307  dHIT:     102587  dMISS:     130720  itACCESS:          0  itHIT:          0  itMISS:          0  dtACCESS:          0  dtHIT:          0  dtMISS:          0
cpu0_L2C TRANSLATION  ACCESS:     235436  HIT:     128516  MISS:     106920  iACCESS:          0  iHIT:          0  iMISS:          0  dACCESS:          0  dHIT:          0  dMISS:          0  itACCESS:      30666  itHIT:      16543  itMISS:      14123  dtACCESS:     204770  dtHIT:     111973  dtMISS:      92797
cpu0_L2C PREFETCH  REQUESTED:    1354521  ISSUED:    1354521  CROSSED:          0  USEFUL:     367093  USELESS:     386548
cpu0_L2C AVERAGE iMISS LATENCY: 18.9132 cycles
cpu0_L2C AVERAGE dMISS LATENCY: 34.0977 cycles
cpu0_L2C AVERAGE itMISS LATENCY: 0.333056 cycles
cpu0_L2C AVERAGE dtMISS LATENCY: 1.87516 cycles
cpu0_L2C PAGE CROSSINGS (TLB HIT):         0 
cpu0_L2C PAGE CROSSINGS (TLB MISS):         0 
cpu0_L2C AVERAGE MISS LATENCY: 55.2191 cycles
LLC TOTAL       ACCESS:    5943172  HIT:    4510641  MISS:    1432531  iACCESS:    2155767  iHIT:    1650542  iMISS:     505225  dACCESS:    3680485  dHIT:    2815607  dMISS:     864878  itACCESS:      14123  itHIT:       4047  itMISS:      10076  dtACCESS:      92797  dtHIT:      40445  dtMISS:      52352
LLC LOAD         ACCESS:    2323001  HIT:    2007756  MISS:     315245  iACCESS:     544335  iHIT:     441123  iMISS:     103212  dACCESS:    1778666  dHIT:    1566633  dMISS:     212033  itACCESS:          0  itHIT:          0  itMISS:          0  dtACCESS:          0  dtHIT:          0  dtMISS:          0
LLC RFO          ACCESS:     112185  HIT:      59359  MISS:      52826  iACCESS:          0  iHIT:          0  iMISS:          0  dACCESS:     112185  dHIT:      59359  dMISS:      52826  itACCESS:          0  itHIT:          0  itMISS:          0  dtACCESS:          0  dtHIT:          0  dtMISS:          0
LLC PREFETCH     ACCESS:    3272641  HIT:    2280743  MISS:     991898  iACCESS:    1611432  iHIT:    1209419  iMISS:     402013  dACCESS:    1661209  dHIT:    1071324  dMISS:     589885  itACCESS:          0  itHIT:          0  itMISS:          0  dtACCESS:          0  dtHIT:          0  dtMISS:          0
LLC WRITE        ACCESS:     128425  HIT:     118291  MISS:      10134  iACCESS:          0  iHIT:          0  iMISS:          0  dACCESS:     128425  dHIT:     118291  dMISS:      10134  itACCESS:          0  itHIT:          0  itMISS:          0  dtACCESS:          0  dtHIT:          0  dtMISS:          0
LLC TRANSLATION  ACCESS:     106920  HIT:      44492  MISS:      62428  iACCESS:          0  iHIT:          0  iMISS:          0  dACCESS:          0  dHIT:          0  dMISS:          0  itACCESS:      14123  itHIT:       4047  itMISS:      10076  dtACCESS:      92797  dtHIT:      40445  dtMISS:      52352
LLC PREFETCH  REQUESTED:          0  ISSUED:          0  CROSSED:          0  USEFUL:          0  USELESS:          0
LLC AVERAGE iMISS LATENCY: 51.6878 cycles
LLC AVERAGE dMISS LATENCY: 98.4615 cycles
LLC AVERAGE itMISS LATENCY: 1.22938 cycles
LLC AVERAGE dtMISS LATENCY: 6.74736 cycles
LLC PAGE CROSSINGS (TLB HIT):         0 
LLC PAGE CROSSINGS (TLB MISS):         0 
LLC AVERAGE MISS LATENCY: 158.126 cycles

PageTableWalker TOTAL       ACCESS:      86479  
PageTableWalker AVERAGE LATENCY: 4.62176 cycles
PageTableWalker TOTAL LATENCY: 399685 cycles

DRAM Statistics
Channel 0
 RQ ROW_BUFFER_HIT:     422505
  ROW_BUFFER_MISS:     986641
 AVG DBUS CONGESTED CYCLE:    3.63722
 WQ ROW_BUFFER_HIT:      26711
  ROW_BUFFER_MISS:      22026  FULL:          0

