last_page:0x200000000000000
VMEM_RES_CAP:0x100000
PAGE_SIZE:4096
LOG2_PAGE_SIZE:12
LOG2_PAGE_TABLE_SIZE:9
page_table_levels:5
WARNING: physical memory size is smaller than virtual memory size
FDiP enabled with aggresivity 16

*** ChampSim Multicore Out-of-Order Simulator ***

Warmup Instructions: 50000000
Simulation Instructions: 100000000
Number of CPUs: 1
Small page size: 4096
Large page size: 2097152

CPU 0 Bimodal branch predictor
Basic BTB sets: 1024 ways: 8 indirect buffer size: 4096 RAS size: 64
Instruction page size distrubution: 0
Loading instruction page size distribution from /home/bsc/bsc018186/scratch/itp_asplos25_AE/dump/srv468_ap.pdst
Data page size distrubution: 0
Loading data page size distribution from /home/bsc/bsc018186/scratch/itp_asplos25_AE/dump/srv468_ap.pdst
cpu0_L2C IP-based stride prefetcher
cpu0_L2C is using PTP replacement policy:
	TLB_STRESS_THRESHOLD:0
	PTE_EVICTION_RATIO:0
cpu0_L1D next line prefetcher
cpu0_L1I next line prefetcher
Off-chip DRAM Size: 4 GiB Channels: 1 Width: 64-bit Data Rate: 3200 MT/s
Heartbeat CPU 0 instructions: 10000000 cycles: 2500251 heartbeat IPC: 3.9996 cumulative IPC: 3.9996 (Simulation time: 0 hr 0 min 37 sec) 
Heartbeat CPU 0 instructions: 20000000 cycles: 5000266 heartbeat IPC: 3.99998 cumulative IPC: 3.99979 (Simulation time: 0 hr 1 min 16 sec) 
Heartbeat CPU 0 instructions: 30000000 cycles: 7500307 heartbeat IPC: 3.99994 cumulative IPC: 3.99984 (Simulation time: 0 hr 1 min 56 sec) 
Heartbeat CPU 0 instructions: 40000002 cycles: 10000386 heartbeat IPC: 3.99988 cumulative IPC: 3.99985 (Simulation time: 0 hr 2 min 36 sec) 
Heartbeat CPU 0 instructions: 50000002 cycles: 12500483 heartbeat IPC: 3.99985 cumulative IPC: 3.99985 (Simulation time: 0 hr 3 min 17 sec) 
Warmup finished CPU 0 instructions: 50000002 cycles: 12500484 cumulative IPC: 3.99985 (Simulation time: 0 hr 3 min 17 sec) 

Warmup complete CPU 0 instructions: 50000002 cycles: 12500484 (Simulation time: 0 hr 3 min 17 sec) 

Heartbeat CPU 0 instructions: 60000002 cycles: 26988597 heartbeat IPC: 0.690221 cumulative IPC: 0.690222 (Simulation time: 0 hr 4 min 21 sec) 
Heartbeat CPU 0 instructions: 70000000 cycles: 41212901 heartbeat IPC: 0.703022 cumulative IPC: 0.696563 (Simulation time: 0 hr 5 min 24 sec) 
Heartbeat CPU 0 instructions: 80000004 cycles: 55112661 heartbeat IPC: 0.719438 cumulative IPC: 0.704025 (Simulation time: 0 hr 6 min 29 sec) 
Heartbeat CPU 0 instructions: 90000000 cycles: 69430833 heartbeat IPC: 0.698413 cumulative IPC: 0.702613 (Simulation time: 0 hr 7 min 33 sec) 
Heartbeat CPU 0 instructions: 100000000 cycles: 83300770 heartbeat IPC: 0.720984 cumulative IPC: 0.706212 (Simulation time: 0 hr 8 min 36 sec) 
*** Reached end of trace: /gpfs/projects/bsc18/MN4/bsc18/romol/ChampSim/traces/qualcomm_srv/srv468_ap.champsimtrace.xz
Heartbeat CPU 0 instructions: 110000000 cycles: 97850339 heartbeat IPC: 0.687306 cumulative IPC: 0.702989 (Simulation time: 0 hr 9 min 40 sec) 
Heartbeat CPU 0 instructions: 120000002 cycles: 112316553 heartbeat IPC: 0.691267 cumulative IPC: 0.70129 (Simulation time: 0 hr 10 min 45 sec) 
Heartbeat CPU 0 instructions: 130000000 cycles: 126175377 heartbeat IPC: 0.721562 cumulative IPC: 0.703762 (Simulation time: 0 hr 11 min 48 sec) 
Heartbeat CPU 0 instructions: 140000000 cycles: 139989151 heartbeat IPC: 0.723916 cumulative IPC: 0.705946 (Simulation time: 0 hr 12 min 51 sec) 
Heartbeat CPU 0 instructions: 150000002 cycles: 154317502 heartbeat IPC: 0.697918 cumulative IPC: 0.705134 (Simulation time: 0 hr 13 min 55 sec) 
Simulation finished CPU 0 instructions: 100000000 cycles: 141817019 cumulative IPC: 0.705134 (Simulation time: 0 hr 13 min 55 sec) 

Simulation complete CPU 0 instructions: 100000000 cycles: 141817019 (Simulation time: 0 hr 13 min 55 sec) 


ChampSim completed all CPUs

Saving instructions large page distribution to /home/bsc/bsc018186/scratch/itp_asplos25_AE/dump/srv468_ap.pdst...
Saving data large page distribution to /home/bsc/bsc018186/scratch/itp_asplos25_AE/dump/srv468_ap.pdst...
=== Simulation ===
CPU 0 runs /gpfs/projects/bsc18/MN4/bsc18/romol/ChampSim/traces/qualcomm_srv/srv468_ap.champsimtrace.xz

Region of Interest Statistics

CPU 0 cumulative IPC: 0.705134 instructions: 100000000 cycles: 141817019
CPU 0 Branch Prediction Accuracy: 83.3864% MPKI: 29.8165 Average ROB Occupancy at Mispredict: 12.3078
Branch type MPKI
BRANCH_DIRECT_JUMP: 0.952011
BRANCH_INDIRECT: 15.4911
BRANCH_CONDITIONAL: 9.74447
BRANCH_DIRECT_CALL: 1.80949
BRANCH_INDIRECT_CALL: 0.493311
BRANCH_RETURN: 1.32614

Instructions large pages: 0
Instructions small pages: 896
Large page distribution for instructions: 0%

Data large pages: 0
Data small pages: 9391
Large page distribution for data: 0%

cpu0_L1I TOTAL       ACCESS:   35105161  HIT:   26465718  MISS:    8639443  iACCESS:   35105161  iHIT:   26465718  iMISS:    8639443  dACCESS:          0  dHIT:          0  dMISS:          0  itACCESS:          0  itHIT:          0  itMISS:          0  dtACCESS:          0  dtHIT:          0  dtMISS:          0
cpu0_L1I LOAD         ACCESS:   10220006  HIT:    7800608  MISS:    2419398  iACCESS:   10220006  iHIT:    7800608  iMISS:    2419398  dACCESS:          0  dHIT:          0  dMISS:          0  itACCESS:          0  itHIT:          0  itMISS:          0  dtACCESS:          0  dtHIT:          0  dtMISS:          0
cpu0_L1I RFO          ACCESS:          0  HIT:          0  MISS:          0  iACCESS:          0  iHIT:          0  iMISS:          0  dACCESS:          0  dHIT:          0  dMISS:          0  itACCESS:          0  itHIT:          0  itMISS:          0  dtACCESS:          0  dtHIT:          0  dtMISS:          0
cpu0_L1I PREFETCH     ACCESS:   24885155  HIT:   18665110  MISS:    6220045  iACCESS:   24885155  iHIT:   18665110  iMISS:    6220045  dACCESS:          0  dHIT:          0  dMISS:          0  itACCESS:          0  itHIT:          0  itMISS:          0  dtACCESS:          0  dtHIT:          0  dtMISS:          0
cpu0_L1I WRITE        ACCESS:          0  HIT:          0  MISS:          0  iACCESS:          0  iHIT:          0  iMISS:          0  dACCESS:          0  dHIT:          0  dMISS:          0  itACCESS:          0  itHIT:          0  itMISS:          0  dtACCESS:          0  dtHIT:          0  dtMISS:          0
cpu0_L1I TRANSLATION  ACCESS:          0  HIT:          0  MISS:          0  iACCESS:          0  iHIT:          0  iMISS:          0  dACCESS:          0  dHIT:          0  dMISS:          0  itACCESS:          0  itHIT:          0  itMISS:          0  dtACCESS:          0  dtHIT:          0  dtMISS:          0
cpu0_L1I PREFETCH  REQUESTED:   27106917  ISSUED:   27103435  CROSSED:          0  USEFUL:    1938056  USELESS:     637700
cpu0_L1I AVERAGE iMISS LATENCY: 13.8397 cycles
cpu0_L1I AVERAGE dMISS LATENCY: 0 cycles
cpu0_L1I AVERAGE itMISS LATENCY: 0 cycles
cpu0_L1I AVERAGE dtMISS LATENCY: 0 cycles
cpu0_L1I PAGE CROSSINGS (TLB HIT):         0 
cpu0_L1I PAGE CROSSINGS (TLB MISS):         0 
cpu0_L1I AVERAGE MISS LATENCY: 13.8397 cycles
cpu0_ITLB TOTAL       ACCESS:   29022679  HIT:   27026338  MISS:    1996341  iACCESS:   29022679  iHIT:   27026338  iMISS:    1996341  dACCESS:          0  dHIT:          0  dMISS:          0  itACCESS:          0  itHIT:          0  itMISS:          0  dtACCESS:          0  dtHIT:          0  dtMISS:          0
cpu0_ITLB LOAD         ACCESS:   29022679  HIT:   27026338  MISS:    1996341  iACCESS:   29022679  iHIT:   27026338  iMISS:    1996341  dACCESS:          0  dHIT:          0  dMISS:          0  itACCESS:          0  itHIT:          0  itMISS:          0  dtACCESS:          0  dtHIT:          0  dtMISS:          0
cpu0_ITLB RFO          ACCESS:          0  HIT:          0  MISS:          0  iACCESS:          0  iHIT:          0  iMISS:          0  dACCESS:          0  dHIT:          0  dMISS:          0  itACCESS:          0  itHIT:          0  itMISS:          0  dtACCESS:          0  dtHIT:          0  dtMISS:          0
cpu0_ITLB PREFETCH     ACCESS:          0  HIT:          0  MISS:          0  iACCESS:          0  iHIT:          0  iMISS:          0  dACCESS:          0  dHIT:          0  dMISS:          0  itACCESS:          0  itHIT:          0  itMISS:          0  dtACCESS:          0  dtHIT:          0  dtMISS:          0
cpu0_ITLB WRITE        ACCESS:          0  HIT:          0  MISS:          0  iACCESS:          0  iHIT:          0  iMISS:          0  dACCESS:          0  dHIT:          0  dMISS:          0  itACCESS:          0  itHIT:          0  itMISS:          0  dtACCESS:          0  dtHIT:          0  dtMISS:          0
cpu0_ITLB TRANSLATION  ACCESS:          0  HIT:          0  MISS:          0  iACCESS:          0  iHIT:          0  iMISS:          0  dACCESS:          0  dHIT:          0  dMISS:          0  itACCESS:          0  itHIT:          0  itMISS:          0  dtACCESS:          0  dtHIT:          0  dtMISS:          0
cpu0_ITLB PREFETCH  REQUESTED:          0  ISSUED:          0  CROSSED:          0  USEFUL:     326669  USELESS:      62238
cpu0_ITLB AVERAGE iMISS LATENCY: 2.67829 cycles
cpu0_ITLB AVERAGE dMISS LATENCY: 0 cycles
cpu0_ITLB AVERAGE itMISS LATENCY: 0 cycles
cpu0_ITLB AVERAGE dtMISS LATENCY: 0 cycles
cpu0_ITLB PAGE CROSSINGS (TLB HIT):         0 
cpu0_ITLB PAGE CROSSINGS (TLB MISS):         0 
cpu0_ITLB AVERAGE MISS LATENCY: 2.67829 cycles
cpu0_DTLB TOTAL       ACCESS:   27744211  HIT:   25651375  MISS:    2092836  iACCESS:          0  iHIT:          0  iMISS:          0  dACCESS:   27744211  dHIT:   25651375  dMISS:    2092836  itACCESS:          0  itHIT:          0  itMISS:          0  dtACCESS:          0  dtHIT:          0  dtMISS:          0
cpu0_DTLB LOAD         ACCESS:   27744211  HIT:   25651375  MISS:    2092836  iACCESS:          0  iHIT:          0  iMISS:          0  dACCESS:   27744211  dHIT:   25651375  dMISS:    2092836  itACCESS:          0  itHIT:          0  itMISS:          0  dtACCESS:          0  dtHIT:          0  dtMISS:          0
cpu0_DTLB RFO          ACCESS:          0  HIT:          0  MISS:          0  iACCESS:          0  iHIT:          0  iMISS:          0  dACCESS:          0  dHIT:          0  dMISS:          0  itACCESS:          0  itHIT:          0  itMISS:          0  dtACCESS:          0  dtHIT:          0  dtMISS:          0
cpu0_DTLB PREFETCH     ACCESS:          0  HIT:          0  MISS:          0  iACCESS:          0  iHIT:          0  iMISS:          0  dACCESS:          0  dHIT:          0  dMISS:          0  itACCESS:          0  itHIT:          0  itMISS:          0  dtACCESS:          0  dtHIT:          0  dtMISS:          0
cpu0_DTLB WRITE        ACCESS:          0  HIT:          0  MISS:          0  iACCESS:          0  iHIT:          0  iMISS:          0  dACCESS:          0  dHIT:          0  dMISS:          0  itACCESS:          0  itHIT:          0  itMISS:          0  dtACCESS:          0  dtHIT:          0  dtMISS:          0
cpu0_DTLB TRANSLATION  ACCESS:          0  HIT:          0  MISS:          0  iACCESS:          0  iHIT:          0  iMISS:          0  dACCESS:          0  dHIT:          0  dMISS:          0  itACCESS:          0  itHIT:          0  itMISS:          0  dtACCESS:          0  dtHIT:          0  dtMISS:          0
cpu0_DTLB PREFETCH  REQUESTED:          0  ISSUED:          0  CROSSED:          0  USEFUL:          0  USELESS:          0
cpu0_DTLB AVERAGE iMISS LATENCY: 0 cycles
cpu0_DTLB AVERAGE dMISS LATENCY: 8.4309 cycles
cpu0_DTLB AVERAGE itMISS LATENCY: 0 cycles
cpu0_DTLB AVERAGE dtMISS LATENCY: 0 cycles
cpu0_DTLB PAGE CROSSINGS (TLB HIT):         0 
cpu0_DTLB PAGE CROSSINGS (TLB MISS):         0 
cpu0_DTLB AVERAGE MISS LATENCY: 8.4309 cycles
cpu0_STLB TOTAL       ACCESS:    1633989  HIT:    1470755  MISS:     163234  iACCESS:     388959  iHIT:     332326  iMISS:      56633  dACCESS:    1245030  dHIT:    1138429  dMISS:     106601  itACCESS:          0  itHIT:          0  itMISS:          0  dtACCESS:          0  dtHIT:          0  dtMISS:          0
cpu0_STLB LOAD         ACCESS:    1633989  HIT:    1470755  MISS:     163234  iACCESS:     388959  iHIT:     332326  iMISS:      56633  dACCESS:    1245030  dHIT:    1138429  dMISS:     106601  itACCESS:          0  itHIT:          0  itMISS:          0  dtACCESS:          0  dtHIT:          0  dtMISS:          0
cpu0_STLB RFO          ACCESS:          0  HIT:          0  MISS:          0  iACCESS:          0  iHIT:          0  iMISS:          0  dACCESS:          0  dHIT:          0  dMISS:          0  itACCESS:          0  itHIT:          0  itMISS:          0  dtACCESS:          0  dtHIT:          0  dtMISS:          0
cpu0_STLB PREFETCH     ACCESS:          0  HIT:          0  MISS:          0  iACCESS:          0  iHIT:          0  iMISS:          0  dACCESS:          0  dHIT:          0  dMISS:          0  itACCESS:          0  itHIT:          0  itMISS:          0  dtACCESS:          0  dtHIT:          0  dtMISS:          0
cpu0_STLB WRITE        ACCESS:          0  HIT:          0  MISS:          0  iACCESS:          0  iHIT:          0  iMISS:          0  dACCESS:          0  dHIT:          0  dMISS:          0  itACCESS:          0  itHIT:          0  itMISS:          0  dtACCESS:          0  dtHIT:          0  dtMISS:          0
cpu0_STLB TRANSLATION  ACCESS:          0  HIT:          0  MISS:          0  iACCESS:          0  iHIT:          0  iMISS:          0  dACCESS:          0  dHIT:          0  dMISS:          0  itACCESS:          0  itHIT:          0  itMISS:          0  dtACCESS:          0  dtHIT:          0  dtMISS:          0
cpu0_STLB PREFETCH  REQUESTED:          0  ISSUED:          0  CROSSED:          0  USEFUL:          0  USELESS:          0
cpu0_STLB AVERAGE iMISS LATENCY: 13.9543 cycles
cpu0_STLB AVERAGE dMISS LATENCY: 47.3394 cycles
cpu0_STLB AVERAGE itMISS LATENCY: 0 cycles
cpu0_STLB AVERAGE dtMISS LATENCY: 0 cycles
cpu0_STLB PAGE CROSSINGS (TLB HIT):         0 
cpu0_STLB PAGE CROSSINGS (TLB MISS):         0 
cpu0_STLB AVERAGE MISS LATENCY: 61.2937 cycles
cpu0_L1D TOTAL       ACCESS:   41605242  HIT:   37997664  MISS:    3607578  iACCESS:          0  iHIT:          0  iMISS:          0  dACCESS:   41377141  dHIT:   37977727  dMISS:    3399414  itACCESS:      61269  itHIT:       9026  itMISS:      52243  dtACCESS:     166832  dtHIT:      10911  dtMISS:     155921
cpu0_L1D LOAD         ACCESS:   18975560  HIT:   17430811  MISS:    1544749  iACCESS:          0  iHIT:          0  iMISS:          0  dACCESS:   18975560  dHIT:   17430811  dMISS:    1544749  itACCESS:          0  itHIT:          0  itMISS:          0  dtACCESS:          0  dtHIT:          0  dtMISS:          0
cpu0_L1D RFO          ACCESS:          0  HIT:          0  MISS:          0  iACCESS:          0  iHIT:          0  iMISS:          0  dACCESS:          0  dHIT:          0  dMISS:          0  itACCESS:          0  itHIT:          0  itMISS:          0  dtACCESS:          0  dtHIT:          0  dtMISS:          0
cpu0_L1D PREFETCH     ACCESS:   12258512  HIT:   10848708  MISS:    1409804  iACCESS:          0  iHIT:          0  iMISS:          0  dACCESS:   12258512  dHIT:   10848708  dMISS:    1409804  itACCESS:          0  itHIT:          0  itMISS:          0  dtACCESS:          0  dtHIT:          0  dtMISS:          0
cpu0_L1D WRITE        ACCESS:   10143069  HIT:    9698208  MISS:     444861  iACCESS:          0  iHIT:          0  iMISS:          0  dACCESS:   10143069  dHIT:    9698208  dMISS:     444861  itACCESS:          0  itHIT:          0  itMISS:          0  dtACCESS:          0  dtHIT:          0  dtMISS:          0
cpu0_L1D TRANSLATION  ACCESS:     228101  HIT:      19937  MISS:     208164  iACCESS:          0  iHIT:          0  iMISS:          0  dACCESS:          0  dHIT:          0  dMISS:          0  itACCESS:      61269  itHIT:       9026  itMISS:      52243  dtACCESS:     166832  dtHIT:      10911  dtMISS:     155921
cpu0_L1D PREFETCH  REQUESTED:   18975560  ISSUED:   17093640  CROSSED:          0  USEFUL:     310587  USELESS:     708763
cpu0_L1D AVERAGE iMISS LATENCY: 0 cycles
cpu0_L1D AVERAGE dMISS LATENCY: 35.0694 cycles
cpu0_L1D AVERAGE itMISS LATENCY: 0.496235 cycles
cpu0_L1D AVERAGE dtMISS LATENCY: 1.51398 cycles
cpu0_L1D PAGE CROSSINGS (TLB HIT):         0 
cpu0_L1D PAGE CROSSINGS (TLB MISS):         0 
cpu0_L1D AVERAGE MISS LATENCY: 37.0796 cycles
cpu0_L2C TOTAL       ACCESS:    7033540  HIT:    1222545  MISS:    5810995  iACCESS:    3332466  iHIT:     692921  iMISS:    2639545  dACCESS:    3508606  dHIT:     371690  dMISS:    3136916  itACCESS:      52241  itHIT:      42411  itMISS:       9830  dtACCESS:     140227  dtHIT:     115523  dtMISS:      24704
cpu0_L2C LOAD         ACCESS:    1736937  HIT:     142589  MISS:    1594348  iACCESS:     795449  iHIT:     103238  iMISS:     692211  dACCESS:     941488  dHIT:      39351  dMISS:     902137  itACCESS:          0  itHIT:          0  itMISS:          0  dtACCESS:          0  dtHIT:          0  dtMISS:          0
cpu0_L2C RFO          ACCESS:     156127  HIT:       7029  MISS:     149098  iACCESS:          0  iHIT:          0  iMISS:          0  dACCESS:     156127  dHIT:       7029  dMISS:     149098  itACCESS:          0  itHIT:          0  itMISS:          0  dtACCESS:          0  dtHIT:          0  dtMISS:          0
cpu0_L2C PREFETCH     ACCESS:    4661409  HIT:     857070  MISS:    3804339  iACCESS:    2537017  iHIT:     589683  iMISS:    1947334  dACCESS:    2124392  dHIT:     267387  dMISS:    1857005  itACCESS:          0  itHIT:          0  itMISS:          0  dtACCESS:          0  dtHIT:          0  dtMISS:          0
cpu0_L2C WRITE        ACCESS:     286599  HIT:      57923  MISS:     228676  iACCESS:          0  iHIT:          0  iMISS:          0  dACCESS:     286599  dHIT:      57923  dMISS:     228676  itACCESS:          0  itHIT:          0  itMISS:          0  dtACCESS:          0  dtHIT:          0  dtMISS:          0
cpu0_L2C TRANSLATION  ACCESS:     192468  HIT:     157934  MISS:      34534  iACCESS:          0  iHIT:          0  iMISS:          0  dACCESS:          0  dHIT:          0  dMISS:          0  itACCESS:      52241  itHIT:      42411  itMISS:       9830  dtACCESS:     140227  dtHIT:     115523  dtMISS:      24704
cpu0_L2C PREFETCH  REQUESTED:    1389238  ISSUED:    1389238  CROSSED:          0  USEFUL:     417542  USELESS:     400374
cpu0_L2C AVERAGE iMISS LATENCY: 15.2158 cycles
cpu0_L2C AVERAGE dMISS LATENCY: 25.2986 cycles
cpu0_L2C AVERAGE itMISS LATENCY: 0.22526 cycles
cpu0_L2C AVERAGE dtMISS LATENCY: 0.717279 cycles
cpu0_L2C PAGE CROSSINGS (TLB HIT):         0 
cpu0_L2C PAGE CROSSINGS (TLB MISS):         0 
cpu0_L2C AVERAGE MISS LATENCY: 41.4569 cycles
LLC TOTAL       ACCESS:    5728309  HIT:    4883531  MISS:     844778  iACCESS:    2578292  iHIT:    2320580  iMISS:     257712  dACCESS:    3115483  dHIT:    2555178  dMISS:     560305  itACCESS:       9830  itHIT:       3435  itMISS:       6395  dtACCESS:      24704  dtHIT:       4338  dtMISS:      20366
LLC LOAD         ACCESS:    1592167  HIT:    1391780  MISS:     200387  iACCESS:     690435  iHIT:     632544  iMISS:      57891  dACCESS:     901732  dHIT:     759236  dMISS:     142496  itACCESS:          0  itHIT:          0  itMISS:          0  dtACCESS:          0  dtHIT:          0  dtMISS:          0
LLC RFO          ACCESS:     149089  HIT:     107216  MISS:      41873  iACCESS:          0  iHIT:          0  iMISS:          0  dACCESS:     149089  dHIT:     107216  dMISS:      41873  itACCESS:          0  itHIT:          0  itMISS:          0  dtACCESS:          0  dtHIT:          0  dtMISS:          0
LLC PREFETCH     ACCESS:    3690790  HIT:    3115033  MISS:     575757  iACCESS:    1887857  iHIT:    1688036  iMISS:     199821  dACCESS:    1802933  dHIT:    1426997  dMISS:     375936  itACCESS:          0  itHIT:          0  itMISS:          0  dtACCESS:          0  dtHIT:          0  dtMISS:          0
LLC WRITE        ACCESS:     261729  HIT:     261729  MISS:          0  iACCESS:          0  iHIT:          0  iMISS:          0  dACCESS:     261729  dHIT:     261729  dMISS:          0  itACCESS:          0  itHIT:          0  itMISS:          0  dtACCESS:          0  dtHIT:          0  dtMISS:          0
LLC TRANSLATION  ACCESS:      34534  HIT:       7773  MISS:      26761  iACCESS:          0  iHIT:          0  iMISS:          0  dACCESS:          0  dHIT:          0  dMISS:          0  itACCESS:       9830  itHIT:       3435  itMISS:       6395  dtACCESS:      24704  dtHIT:       4338  dtMISS:      20366
LLC PREFETCH  REQUESTED:          0  ISSUED:          0  CROSSED:          0  USEFUL:          0  USELESS:          0
LLC AVERAGE iMISS LATENCY: 45.7509 cycles
LLC AVERAGE dMISS LATENCY: 108.795 cycles
LLC AVERAGE itMISS LATENCY: 1.32117 cycles
LLC AVERAGE dtMISS LATENCY: 4.3569 cycles
LLC PAGE CROSSINGS (TLB HIT):         0 
LLC PAGE CROSSINGS (TLB MISS):         0 
LLC AVERAGE MISS LATENCY: 160.224 cycles

PageTableWalker TOTAL       ACCESS:      82199  
PageTableWalker AVERAGE LATENCY: 4.09161 cycles
PageTableWalker TOTAL LATENCY: 336326 cycles

DRAM Statistics
Channel 0
 RQ ROW_BUFFER_HIT:     228566
  ROW_BUFFER_MISS:     616149
 AVG DBUS CONGESTED CYCLE:    3.63238
 WQ ROW_BUFFER_HIT:      23349
  ROW_BUFFER_MISS:      31173  FULL:          0

