last_page:0x200000000000000
VMEM_RES_CAP:0x100000
PAGE_SIZE:4096
LOG2_PAGE_SIZE:12
LOG2_PAGE_TABLE_SIZE:9
page_table_levels:5
WARNING: physical memory size is smaller than virtual memory size
FDiP enabled with aggresivity 16

*** ChampSim Multicore Out-of-Order Simulator ***

Warmup Instructions: 50000000
Simulation Instructions: 100000000
Number of CPUs: 1
Small page size: 4096
Large page size: 2097152

CPU 0 Bimodal branch predictor
Basic BTB sets: 1024 ways: 8 indirect buffer size: 4096 RAS size: 64
Instruction page size distrubution: 0
Loading instruction page size distribution from /home/bsc/bsc018186/scratch/itp_asplos25_AE/dump/srv413_ap.pdst
Data page size distrubution: 0
Loading data page size distribution from /home/bsc/bsc018186/scratch/itp_asplos25_AE/dump/srv413_ap.pdst
cpu0_L2C IP-based stride prefetcher
cpu0_L1D next line prefetcher
cpu0_STLB using iTP with max lru@8
cpu0_STLB using iTP with instr@0 and data@2
Init sat counter with 3 bits (max:50).
cpu0_L1I next line prefetcher
Off-chip DRAM Size: 4 GiB Channels: 1 Width: 64-bit Data Rate: 3200 MT/s
Heartbeat CPU 0 instructions: 10000002 cycles: 2500193 heartbeat IPC: 3.9997 cumulative IPC: 3.9997 (Simulation time: 0 hr 0 min 37 sec) 
Heartbeat CPU 0 instructions: 20000003 cycles: 5000196 heartbeat IPC: 4 cumulative IPC: 3.99985 (Simulation time: 0 hr 1 min 17 sec) 
Heartbeat CPU 0 instructions: 30000000 cycles: 7500237 heartbeat IPC: 3.99994 cumulative IPC: 3.99988 (Simulation time: 0 hr 1 min 57 sec) 
Heartbeat CPU 0 instructions: 40000000 cycles: 10000254 heartbeat IPC: 3.99998 cumulative IPC: 3.9999 (Simulation time: 0 hr 2 min 37 sec) 
Heartbeat CPU 0 instructions: 50000000 cycles: 12500256 heartbeat IPC: 4 cumulative IPC: 3.99992 (Simulation time: 0 hr 3 min 18 sec) 
Warmup finished CPU 0 instructions: 50000000 cycles: 12500257 cumulative IPC: 3.99992 (Simulation time: 0 hr 3 min 18 sec) 

Warmup complete CPU 0 instructions: 50000000 cycles: 12500257 (Simulation time: 0 hr 3 min 18 sec) 

Heartbeat CPU 0 instructions: 60000003 cycles: 26783646 heartbeat IPC: 0.700115 cumulative IPC: 0.700115 (Simulation time: 0 hr 4 min 20 sec) 
Heartbeat CPU 0 instructions: 70000001 cycles: 38476435 heartbeat IPC: 0.855228 cumulative IPC: 0.769937 (Simulation time: 0 hr 5 min 20 sec) 
Heartbeat CPU 0 instructions: 80000000 cycles: 47446441 heartbeat IPC: 1.11483 cumulative IPC: 0.858463 (Simulation time: 0 hr 6 min 14 sec) 
Heartbeat CPU 0 instructions: 90000002 cycles: 61886393 heartbeat IPC: 0.692524 cumulative IPC: 0.809944 (Simulation time: 0 hr 7 min 17 sec) 
Heartbeat CPU 0 instructions: 100000001 cycles: 76903151 heartbeat IPC: 0.665923 cumulative IPC: 0.776363 (Simulation time: 0 hr 8 min 21 sec) 
*** Reached end of trace: /gpfs/projects/bsc18/MN4/bsc18/romol/ChampSim/traces/qualcomm_srv/srv413_ap.champsimtrace.xz
Heartbeat CPU 0 instructions: 110000001 cycles: 90892110 heartbeat IPC: 0.71485 cumulative IPC: 0.765386 (Simulation time: 0 hr 9 min 23 sec) 
Heartbeat CPU 0 instructions: 120000000 cycles: 106250041 heartbeat IPC: 0.65113 cumulative IPC: 0.746669 (Simulation time: 0 hr 10 min 26 sec) 
Heartbeat CPU 0 instructions: 130000001 cycles: 120108601 heartbeat IPC: 0.721576 cumulative IPC: 0.743437 (Simulation time: 0 hr 11 min 27 sec) 
Heartbeat CPU 0 instructions: 140000003 cycles: 135289844 heartbeat IPC: 0.658708 cumulative IPC: 0.732962 (Simulation time: 0 hr 12 min 30 sec) 
Heartbeat CPU 0 instructions: 150000004 cycles: 149359755 heartbeat IPC: 0.710737 cumulative IPC: 0.730677 (Simulation time: 0 hr 13 min 30 sec) 
Simulation finished CPU 0 instructions: 100000004 cycles: 136859499 cumulative IPC: 0.730677 (Simulation time: 0 hr 13 min 30 sec) 

Simulation complete CPU 0 instructions: 100000004 cycles: 136859499 (Simulation time: 0 hr 13 min 30 sec) 


ChampSim completed all CPUs

Saving instructions large page distribution to /home/bsc/bsc018186/scratch/itp_asplos25_AE/dump/srv413_ap.pdst...
Saving data large page distribution to /home/bsc/bsc018186/scratch/itp_asplos25_AE/dump/srv413_ap.pdst...
=== Simulation ===
CPU 0 runs /gpfs/projects/bsc18/MN4/bsc18/romol/ChampSim/traces/qualcomm_srv/srv413_ap.champsimtrace.xz

Region of Interest Statistics

CPU 0 cumulative IPC: 0.730677 instructions: 100000004 cycles: 136859499
CPU 0 Branch Prediction Accuracy: 85.7708% MPKI: 27.3215 Average ROB Occupancy at Mispredict: 14.1504
Branch type MPKI
BRANCH_DIRECT_JUMP: 0.85247
BRANCH_INDIRECT: 14.2733
BRANCH_CONDITIONAL: 8.85647
BRANCH_DIRECT_CALL: 1.63104
BRANCH_INDIRECT_CALL: 0.52265
BRANCH_RETURN: 1.18553

Instructions large pages: 0
Instructions small pages: 9695
Large page distribution for instructions: 0%

Data large pages: 0
Data small pages: 8720
Large page distribution for data: 0%

cpu0_L1I TOTAL       ACCESS:   33826266  HIT:   26776214  MISS:    7050052  iACCESS:   33826266  iHIT:   26776214  iMISS:    7050052  dACCESS:          0  dHIT:          0  dMISS:          0  itACCESS:          0  itHIT:          0  itMISS:          0  dtACCESS:          0  dtHIT:          0  dtMISS:          0
cpu0_L1I LOAD         ACCESS:    9109851  HIT:    7124813  MISS:    1985038  iACCESS:    9109851  iHIT:    7124813  iMISS:    1985038  dACCESS:          0  dHIT:          0  dMISS:          0  itACCESS:          0  itHIT:          0  itMISS:          0  dtACCESS:          0  dtHIT:          0  dtMISS:          0
cpu0_L1I RFO          ACCESS:          0  HIT:          0  MISS:          0  iACCESS:          0  iHIT:          0  iMISS:          0  dACCESS:          0  dHIT:          0  dMISS:          0  itACCESS:          0  itHIT:          0  itMISS:          0  dtACCESS:          0  dtHIT:          0  dtMISS:          0
cpu0_L1I PREFETCH     ACCESS:   24716415  HIT:   19651401  MISS:    5065014  iACCESS:   24716415  iHIT:   19651401  iMISS:    5065014  dACCESS:          0  dHIT:          0  dMISS:          0  itACCESS:          0  itHIT:          0  itMISS:          0  dtACCESS:          0  dtHIT:          0  dtMISS:          0
cpu0_L1I WRITE        ACCESS:          0  HIT:          0  MISS:          0  iACCESS:          0  iHIT:          0  iMISS:          0  dACCESS:          0  dHIT:          0  dMISS:          0  itACCESS:          0  itHIT:          0  itMISS:          0  dtACCESS:          0  dtHIT:          0  dtMISS:          0
cpu0_L1I TRANSLATION  ACCESS:          0  HIT:          0  MISS:          0  iACCESS:          0  iHIT:          0  iMISS:          0  dACCESS:          0  dHIT:          0  dMISS:          0  itACCESS:          0  itHIT:          0  itMISS:          0  dtACCESS:          0  dtHIT:          0  dtMISS:          0
cpu0_L1I PREFETCH  REQUESTED:   26955415  ISSUED:   26955415  CROSSED:          0  USEFUL:    1717008  USELESS:     565778
cpu0_L1I AVERAGE iMISS LATENCY: 12.6343 cycles
cpu0_L1I AVERAGE dMISS LATENCY: 0 cycles
cpu0_L1I AVERAGE itMISS LATENCY: 0 cycles
cpu0_L1I AVERAGE dtMISS LATENCY: 0 cycles
cpu0_L1I PAGE CROSSINGS (TLB HIT):         0 
cpu0_L1I PAGE CROSSINGS (TLB MISS):         0 
cpu0_L1I AVERAGE MISS LATENCY: 12.6343 cycles
cpu0_ITLB TOTAL       ACCESS:   28338565  HIT:   26557546  MISS:    1781019  iACCESS:   28338565  iHIT:   26557546  iMISS:    1781019  dACCESS:          0  dHIT:          0  dMISS:          0  itACCESS:          0  itHIT:          0  itMISS:          0  dtACCESS:          0  dtHIT:          0  dtMISS:          0
cpu0_ITLB LOAD         ACCESS:   28338565  HIT:   26557546  MISS:    1781019  iACCESS:   28338565  iHIT:   26557546  iMISS:    1781019  dACCESS:          0  dHIT:          0  dMISS:          0  itACCESS:          0  itHIT:          0  itMISS:          0  dtACCESS:          0  dtHIT:          0  dtMISS:          0
cpu0_ITLB RFO          ACCESS:          0  HIT:          0  MISS:          0  iACCESS:          0  iHIT:          0  iMISS:          0  dACCESS:          0  dHIT:          0  dMISS:          0  itACCESS:          0  itHIT:          0  itMISS:          0  dtACCESS:          0  dtHIT:          0  dtMISS:          0
cpu0_ITLB PREFETCH     ACCESS:          0  HIT:          0  MISS:          0  iACCESS:          0  iHIT:          0  iMISS:          0  dACCESS:          0  dHIT:          0  dMISS:          0  itACCESS:          0  itHIT:          0  itMISS:          0  dtACCESS:          0  dtHIT:          0  dtMISS:          0
cpu0_ITLB WRITE        ACCESS:          0  HIT:          0  MISS:          0  iACCESS:          0  iHIT:          0  iMISS:          0  dACCESS:          0  dHIT:          0  dMISS:          0  itACCESS:          0  itHIT:          0  itMISS:          0  dtACCESS:          0  dtHIT:          0  dtMISS:          0
cpu0_ITLB TRANSLATION  ACCESS:          0  HIT:          0  MISS:          0  iACCESS:          0  iHIT:          0  iMISS:          0  dACCESS:          0  dHIT:          0  dMISS:          0  itACCESS:          0  itHIT:          0  itMISS:          0  dtACCESS:          0  dtHIT:          0  dtMISS:          0
cpu0_ITLB PREFETCH  REQUESTED:          0  ISSUED:          0  CROSSED:          0  USEFUL:     289180  USELESS:      56179
cpu0_ITLB AVERAGE iMISS LATENCY: 2.02098 cycles
cpu0_ITLB AVERAGE dMISS LATENCY: 0 cycles
cpu0_ITLB AVERAGE itMISS LATENCY: 0 cycles
cpu0_ITLB AVERAGE dtMISS LATENCY: 0 cycles
cpu0_ITLB PAGE CROSSINGS (TLB HIT):         0 
cpu0_ITLB PAGE CROSSINGS (TLB MISS):         0 
cpu0_ITLB AVERAGE MISS LATENCY: 2.02098 cycles
cpu0_DTLB TOTAL       ACCESS:   29428827  HIT:   25091327  MISS:    4337500  iACCESS:          0  iHIT:          0  iMISS:          0  dACCESS:   29428827  dHIT:   25091327  dMISS:    4337500  itACCESS:          0  itHIT:          0  itMISS:          0  dtACCESS:          0  dtHIT:          0  dtMISS:          0
cpu0_DTLB LOAD         ACCESS:   29428827  HIT:   25091327  MISS:    4337500  iACCESS:          0  iHIT:          0  iMISS:          0  dACCESS:   29428827  dHIT:   25091327  dMISS:    4337500  itACCESS:          0  itHIT:          0  itMISS:          0  dtACCESS:          0  dtHIT:          0  dtMISS:          0
cpu0_DTLB RFO          ACCESS:          0  HIT:          0  MISS:          0  iACCESS:          0  iHIT:          0  iMISS:          0  dACCESS:          0  dHIT:          0  dMISS:          0  itACCESS:          0  itHIT:          0  itMISS:          0  dtACCESS:          0  dtHIT:          0  dtMISS:          0
cpu0_DTLB PREFETCH     ACCESS:          0  HIT:          0  MISS:          0  iACCESS:          0  iHIT:          0  iMISS:          0  dACCESS:          0  dHIT:          0  dMISS:          0  itACCESS:          0  itHIT:          0  itMISS:          0  dtACCESS:          0  dtHIT:          0  dtMISS:          0
cpu0_DTLB WRITE        ACCESS:          0  HIT:          0  MISS:          0  iACCESS:          0  iHIT:          0  iMISS:          0  dACCESS:          0  dHIT:          0  dMISS:          0  itACCESS:          0  itHIT:          0  itMISS:          0  dtACCESS:          0  dtHIT:          0  dtMISS:          0
cpu0_DTLB TRANSLATION  ACCESS:          0  HIT:          0  MISS:          0  iACCESS:          0  iHIT:          0  iMISS:          0  dACCESS:          0  dHIT:          0  dMISS:          0  itACCESS:          0  itHIT:          0  itMISS:          0  dtACCESS:          0  dtHIT:          0  dtMISS:          0
cpu0_DTLB PREFETCH  REQUESTED:          0  ISSUED:          0  CROSSED:          0  USEFUL:          0  USELESS:          0
cpu0_DTLB AVERAGE iMISS LATENCY: 0 cycles
cpu0_DTLB AVERAGE dMISS LATENCY: 8.77303 cycles
cpu0_DTLB AVERAGE itMISS LATENCY: 0 cycles
cpu0_DTLB AVERAGE dtMISS LATENCY: 0 cycles
cpu0_DTLB PAGE CROSSINGS (TLB HIT):         0 
cpu0_DTLB PAGE CROSSINGS (TLB MISS):         0 
cpu0_DTLB AVERAGE MISS LATENCY: 8.77303 cycles
cpu0_STLB TOTAL       ACCESS:    2579033  HIT:    2461033  MISS:     118000  iACCESS:     345372  iHIT:     339136  iMISS:       6236  dACCESS:    2233661  dHIT:    2121897  dMISS:     111764  itACCESS:          0  itHIT:          0  itMISS:          0  dtACCESS:          0  dtHIT:          0  dtMISS:          0
cpu0_STLB LOAD         ACCESS:    2579033  HIT:    2461033  MISS:     118000  iACCESS:     345372  iHIT:     339136  iMISS:       6236  dACCESS:    2233661  dHIT:    2121897  dMISS:     111764  itACCESS:          0  itHIT:          0  itMISS:          0  dtACCESS:          0  dtHIT:          0  dtMISS:          0
cpu0_STLB RFO          ACCESS:          0  HIT:          0  MISS:          0  iACCESS:          0  iHIT:          0  iMISS:          0  dACCESS:          0  dHIT:          0  dMISS:          0  itACCESS:          0  itHIT:          0  itMISS:          0  dtACCESS:          0  dtHIT:          0  dtMISS:          0
cpu0_STLB PREFETCH     ACCESS:          0  HIT:          0  MISS:          0  iACCESS:          0  iHIT:          0  iMISS:          0  dACCESS:          0  dHIT:          0  dMISS:          0  itACCESS:          0  itHIT:          0  itMISS:          0  dtACCESS:          0  dtHIT:          0  dtMISS:          0
cpu0_STLB WRITE        ACCESS:          0  HIT:          0  MISS:          0  iACCESS:          0  iHIT:          0  iMISS:          0  dACCESS:          0  dHIT:          0  dMISS:          0  itACCESS:          0  itHIT:          0  itMISS:          0  dtACCESS:          0  dtHIT:          0  dtMISS:          0
cpu0_STLB TRANSLATION  ACCESS:          0  HIT:          0  MISS:          0  iACCESS:          0  iHIT:          0  iMISS:          0  dACCESS:          0  dHIT:          0  dMISS:          0  itACCESS:          0  itHIT:          0  itMISS:          0  dtACCESS:          0  dtHIT:          0  dtMISS:          0
cpu0_STLB PREFETCH  REQUESTED:          0  ISSUED:          0  CROSSED:          0  USEFUL:          0  USELESS:          0
cpu0_STLB AVERAGE iMISS LATENCY: 7.79788 cycles
cpu0_STLB AVERAGE dMISS LATENCY: 170.007 cycles
cpu0_STLB AVERAGE itMISS LATENCY: 0 cycles
cpu0_STLB AVERAGE dtMISS LATENCY: 0 cycles
cpu0_STLB PAGE CROSSINGS (TLB HIT):         0 
cpu0_STLB PAGE CROSSINGS (TLB MISS):         0 
cpu0_STLB AVERAGE MISS LATENCY: 177.805 cycles
cpu0_L1D TOTAL       ACCESS:   43768275  HIT:   38534454  MISS:    5233821  iACCESS:          0  iHIT:          0  iMISS:          0  dACCESS:   43587750  dHIT:   38523774  dMISS:    5063976  itACCESS:       7482  itHIT:        636  itMISS:       6846  dtACCESS:     173043  dtHIT:      10044  dtMISS:     162999
cpu0_L1D LOAD         ACCESS:   21047677  HIT:   17994420  MISS:    3053257  iACCESS:          0  iHIT:          0  iMISS:          0  dACCESS:   21047677  dHIT:   17994420  dMISS:    3053257  itACCESS:          0  itHIT:          0  itMISS:          0  dtACCESS:          0  dtHIT:          0  dtMISS:          0
cpu0_L1D RFO          ACCESS:          0  HIT:          0  MISS:          0  iACCESS:          0  iHIT:          0  iMISS:          0  dACCESS:          0  dHIT:          0  dMISS:          0  itACCESS:          0  itHIT:          0  itMISS:          0  dtACCESS:          0  dtHIT:          0  dtMISS:          0
cpu0_L1D PREFETCH     ACCESS:   12749946  HIT:   11164396  MISS:    1585550  iACCESS:          0  iHIT:          0  iMISS:          0  dACCESS:   12749946  dHIT:   11164396  dMISS:    1585550  itACCESS:          0  itHIT:          0  itMISS:          0  dtACCESS:          0  dtHIT:          0  dtMISS:          0
cpu0_L1D WRITE        ACCESS:    9790127  HIT:    9364958  MISS:     425169  iACCESS:          0  iHIT:          0  iMISS:          0  dACCESS:    9790127  dHIT:    9364958  dMISS:     425169  itACCESS:          0  itHIT:          0  itMISS:          0  dtACCESS:          0  dtHIT:          0  dtMISS:          0
cpu0_L1D TRANSLATION  ACCESS:     180525  HIT:      10680  MISS:     169845  iACCESS:          0  iHIT:          0  iMISS:          0  dACCESS:          0  dHIT:          0  dMISS:          0  itACCESS:       7482  itHIT:        636  itMISS:       6846  dtACCESS:     173043  dtHIT:      10044  dtMISS:     162999
cpu0_L1D PREFETCH  REQUESTED:   21047677  ISSUED:   17432911  CROSSED:          0  USEFUL:     274057  USELESS:     841385
cpu0_L1D AVERAGE iMISS LATENCY: 0 cycles
cpu0_L1D AVERAGE dMISS LATENCY: 23.5827 cycles
cpu0_L1D AVERAGE itMISS LATENCY: 0.157628 cycles
cpu0_L1D AVERAGE dtMISS LATENCY: 3.40728 cycles
cpu0_L1D PAGE CROSSINGS (TLB HIT):         0 
cpu0_L1D PAGE CROSSINGS (TLB MISS):         0 
cpu0_L1D AVERAGE MISS LATENCY: 27.1476 cycles
cpu0_L2C TOTAL       ACCESS:    8005305  HIT:    5434121  MISS:    2571184  iACCESS:    2957906  iHIT:    1983173  iMISS:     974733  dACCESS:    4891065  dHIT:    3424031  dMISS:    1467034  itACCESS:       6746  itHIT:       1310  itMISS:       5436  dtACCESS:     149588  dtHIT:      25607  dtMISS:     123981
cpu0_L2C LOAD         ACCESS:    3067611  HIT:    2459552  MISS:     608059  iACCESS:     711132  iHIT:     501625  iMISS:     209507  dACCESS:    2356479  dHIT:    1957927  dMISS:     398552  itACCESS:          0  itHIT:          0  itMISS:          0  dtACCESS:          0  dtHIT:          0  dtMISS:          0
cpu0_L2C RFO          ACCESS:     160411  HIT:      85124  MISS:      75287  iACCESS:          0  iHIT:          0  iMISS:          0  dACCESS:     160411  dHIT:      85124  dMISS:      75287  itACCESS:          0  itHIT:          0  itMISS:          0  dtACCESS:          0  dtHIT:          0  dtMISS:          0
cpu0_L2C PREFETCH     ACCESS:    4365597  HIT:    2608666  MISS:    1756931  iACCESS:    2246774  iHIT:    1481548  iMISS:     765226  dACCESS:    2118823  dHIT:    1127118  dMISS:     991705  itACCESS:          0  itHIT:          0  itMISS:          0  dtACCESS:          0  dtHIT:          0  dtMISS:          0
cpu0_L2C WRITE        ACCESS:     255352  HIT:     253862  MISS:       1490  iACCESS:          0  iHIT:          0  iMISS:          0  dACCESS:     255352  dHIT:     253862  dMISS:       1490  itACCESS:          0  itHIT:          0  itMISS:          0  dtACCESS:          0  dtHIT:          0  dtMISS:          0
cpu0_L2C TRANSLATION  ACCESS:     156334  HIT:      26917  MISS:     129417  iACCESS:          0  iHIT:          0  iMISS:          0  dACCESS:          0  dHIT:          0  dMISS:          0  itACCESS:       6746  itHIT:       1310  itMISS:       5436  dtACCESS:     149588  dtHIT:      25607  dtMISS:     123981
cpu0_L2C PREFETCH  REQUESTED:    1256625  ISSUED:    1256624  CROSSED:          0  USEFUL:     278837  USELESS:     201531
cpu0_L2C AVERAGE iMISS LATENCY: 24.227 cycles
cpu0_L2C AVERAGE dMISS LATENCY: 46.233 cycles
cpu0_L2C AVERAGE itMISS LATENCY: 0.295089 cycles
cpu0_L2C AVERAGE dtMISS LATENCY: 6.35939 cycles
cpu0_L2C PAGE CROSSINGS (TLB HIT):         0 
cpu0_L2C PAGE CROSSINGS (TLB MISS):         0 
cpu0_L2C AVERAGE MISS LATENCY: 77.1144 cycles
LLC TOTAL       ACCESS:    2593782  HIT:    1646432  MISS:     947350  iACCESS:     925847  iHIT:     623762  iMISS:     302085  dACCESS:    1538518  dHIT:     974071  dMISS:     564447  itACCESS:       5436  itHIT:       1768  itMISS:       3668  dtACCESS:     123981  dtHIT:      46831  dtMISS:      77150
LLC LOAD         ACCESS:     606320  HIT:     398023  MISS:     208297  iACCESS:     208504  iHIT:     143966  iMISS:      64538  dACCESS:     397816  dHIT:     254057  dMISS:     143759  itACCESS:          0  itHIT:          0  itMISS:          0  dtACCESS:          0  dtHIT:          0  dtMISS:          0
LLC RFO          ACCESS:      75287  HIT:      39175  MISS:      36112  iACCESS:          0  iHIT:          0  iMISS:          0  dACCESS:      75287  dHIT:      39175  dMISS:      36112  itACCESS:          0  itHIT:          0  itMISS:          0  dtACCESS:          0  dtHIT:          0  dtMISS:          0
LLC PREFETCH     ACCESS:    1661070  HIT:    1044470  MISS:     616600  iACCESS:     717343  iHIT:     479796  iMISS:     237547  dACCESS:     943727  dHIT:     564674  dMISS:     379053  itACCESS:          0  itHIT:          0  itMISS:          0  dtACCESS:          0  dtHIT:          0  dtMISS:          0
LLC WRITE        ACCESS:     121688  HIT:     116165  MISS:       5523  iACCESS:          0  iHIT:          0  iMISS:          0  dACCESS:     121688  dHIT:     116165  dMISS:       5523  itACCESS:          0  itHIT:          0  itMISS:          0  dtACCESS:          0  dtHIT:          0  dtMISS:          0
LLC TRANSLATION  ACCESS:     129417  HIT:      48599  MISS:      80818  iACCESS:          0  iHIT:          0  iMISS:          0  dACCESS:          0  dHIT:          0  dMISS:          0  itACCESS:       5436  itHIT:       1768  itMISS:       3668  dtACCESS:     123981  dtHIT:      46831  dtMISS:      77150
LLC PREFETCH  REQUESTED:          0  ISSUED:          0  CROSSED:          0  USEFUL:          0  USELESS:          0
LLC AVERAGE iMISS LATENCY: 46.7787 cycles
LLC AVERAGE dMISS LATENCY: 96.5917 cycles
LLC AVERAGE itMISS LATENCY: 0.688367 cycles
LLC AVERAGE dtMISS LATENCY: 14.6987 cycles
LLC PAGE CROSSINGS (TLB HIT):         0 
LLC PAGE CROSSINGS (TLB MISS):         0 
LLC AVERAGE MISS LATENCY: 158.758 cycles

PageTableWalker TOTAL       ACCESS:      65203  
PageTableWalker AVERAGE LATENCY: 5.67277 cycles
PageTableWalker TOTAL LATENCY: 369881 cycles

DRAM Statistics
Channel 0
 RQ ROW_BUFFER_HIT:     259005
  ROW_BUFFER_MISS:     682191
 AVG DBUS CONGESTED CYCLE:    3.62787
 WQ ROW_BUFFER_HIT:      19165
  ROW_BUFFER_MISS:      19876  FULL:          0

