last_page:0x200000000000000
VMEM_RES_CAP:0x100000
PAGE_SIZE:4096
LOG2_PAGE_SIZE:12
LOG2_PAGE_TABLE_SIZE:9
page_table_levels:5
WARNING: physical memory size is smaller than virtual memory size
FDiP enabled with aggresivity 16

*** ChampSim Multicore Out-of-Order Simulator ***

Warmup Instructions: 50000000
Simulation Instructions: 100000000
Number of CPUs: 1
Small page size: 4096
Large page size: 2097152

CPU 0 Bimodal branch predictor
Basic BTB sets: 1024 ways: 8 indirect buffer size: 4096 RAS size: 64
Instruction page size distrubution: 0
Loading instruction page size distribution from /home/bsc/bsc018186/scratch/itp_asplos25_AE/dump/srv45_ap.pdst
Data page size distrubution: 0
Loading data page size distribution from /home/bsc/bsc018186/scratch/itp_asplos25_AE/dump/srv45_ap.pdst
cpu0_L2C IP-based stride prefetcher
cpu0_L2C is using PTP replacement policy:
	TLB_STRESS_THRESHOLD:0
	PTE_EVICTION_RATIO:0
cpu0_L1D next line prefetcher
cpu0_L1I next line prefetcher
Off-chip DRAM Size: 4 GiB Channels: 1 Width: 64-bit Data Rate: 3200 MT/s
Heartbeat CPU 0 instructions: 10000003 cycles: 2500259 heartbeat IPC: 3.99959 cumulative IPC: 3.99959 (Simulation time: 0 hr 0 min 37 sec) 
Heartbeat CPU 0 instructions: 20000000 cycles: 5000259 heartbeat IPC: 4 cumulative IPC: 3.9998 (Simulation time: 0 hr 1 min 17 sec) 
Heartbeat CPU 0 instructions: 30000003 cycles: 7500441 heartbeat IPC: 3.99972 cumulative IPC: 3.99977 (Simulation time: 0 hr 1 min 57 sec) 
Heartbeat CPU 0 instructions: 40000003 cycles: 10000441 heartbeat IPC: 4 cumulative IPC: 3.99983 (Simulation time: 0 hr 2 min 37 sec) 
Heartbeat CPU 0 instructions: 50000002 cycles: 12500454 heartbeat IPC: 3.99998 cumulative IPC: 3.99986 (Simulation time: 0 hr 3 min 18 sec) 
Warmup finished CPU 0 instructions: 50000002 cycles: 12500455 cumulative IPC: 3.99986 (Simulation time: 0 hr 3 min 18 sec) 

Warmup complete CPU 0 instructions: 50000002 cycles: 12500455 (Simulation time: 0 hr 3 min 18 sec) 

Heartbeat CPU 0 instructions: 60000000 cycles: 27561531 heartbeat IPC: 0.663964 cumulative IPC: 0.663964 (Simulation time: 0 hr 4 min 23 sec) 
Heartbeat CPU 0 instructions: 70000004 cycles: 42562821 heartbeat IPC: 0.66661 cumulative IPC: 0.665284 (Simulation time: 0 hr 5 min 28 sec) 
Heartbeat CPU 0 instructions: 80000001 cycles: 57785820 heartbeat IPC: 0.656901 cumulative IPC: 0.662466 (Simulation time: 0 hr 6 min 33 sec) 
Heartbeat CPU 0 instructions: 90000004 cycles: 71965490 heartbeat IPC: 0.705236 cumulative IPC: 0.672665 (Simulation time: 0 hr 7 min 37 sec) 
Heartbeat CPU 0 instructions: 100000000 cycles: 86515101 heartbeat IPC: 0.687304 cumulative IPC: 0.675542 (Simulation time: 0 hr 8 min 42 sec) 
*** Reached end of trace: /gpfs/projects/bsc18/MN4/bsc18/romol/ChampSim/traces/qualcomm_srv/srv45_ap.champsimtrace.xz
Heartbeat CPU 0 instructions: 110000001 cycles: 100977166 heartbeat IPC: 0.691465 cumulative IPC: 0.678145 (Simulation time: 0 hr 9 min 48 sec) 
Heartbeat CPU 0 instructions: 120000001 cycles: 114482728 heartbeat IPC: 0.740436 cumulative IPC: 0.686394 (Simulation time: 0 hr 10 min 52 sec) 
Heartbeat CPU 0 instructions: 130000000 cycles: 129871063 heartbeat IPC: 0.649843 cumulative IPC: 0.681602 (Simulation time: 0 hr 11 min 57 sec) 
Heartbeat CPU 0 instructions: 140000003 cycles: 143172589 heartbeat IPC: 0.751794 cumulative IPC: 0.688747 (Simulation time: 0 hr 13 min 0 sec) 
Heartbeat CPU 0 instructions: 150000001 cycles: 157696593 heartbeat IPC: 0.688516 cumulative IPC: 0.688724 (Simulation time: 0 hr 14 min 5 sec) 
Simulation finished CPU 0 instructions: 100000004 cycles: 145196140 cumulative IPC: 0.688724 (Simulation time: 0 hr 14 min 5 sec) 

Simulation complete CPU 0 instructions: 100000004 cycles: 145196140 (Simulation time: 0 hr 14 min 5 sec) 


ChampSim completed all CPUs

Saving instructions large page distribution to /home/bsc/bsc018186/scratch/itp_asplos25_AE/dump/srv45_ap.pdst...
Saving data large page distribution to /home/bsc/bsc018186/scratch/itp_asplos25_AE/dump/srv45_ap.pdst...
=== Simulation ===
CPU 0 runs /gpfs/projects/bsc18/MN4/bsc18/romol/ChampSim/traces/qualcomm_srv/srv45_ap.champsimtrace.xz

Region of Interest Statistics

CPU 0 cumulative IPC: 0.688724 instructions: 100000004 cycles: 145196140
CPU 0 Branch Prediction Accuracy: 82.716% MPKI: 30.931 Average ROB Occupancy at Mispredict: 12.0292
Branch type MPKI
BRANCH_DIRECT_JUMP: 1.06715
BRANCH_INDIRECT: 15.7696
BRANCH_CONDITIONAL: 10.2538
BRANCH_DIRECT_CALL: 1.93069
BRANCH_INDIRECT_CALL: 0.52669
BRANCH_RETURN: 1.38307

Instructions large pages: 0
Instructions small pages: 1017
Large page distribution for instructions: 0%

Data large pages: 0
Data small pages: 9711
Large page distribution for data: 0%

cpu0_L1I TOTAL       ACCESS:   35658571  HIT:   27159875  MISS:    8498696  iACCESS:   35658571  iHIT:   27159875  iMISS:    8498696  dACCESS:          0  dHIT:          0  dMISS:          0  itACCESS:          0  itHIT:          0  itMISS:          0  dtACCESS:          0  dtHIT:          0  dtMISS:          0
cpu0_L1I LOAD         ACCESS:   10442998  HIT:    8070213  MISS:    2372785  iACCESS:   10442998  iHIT:    8070213  iMISS:    2372785  dACCESS:          0  dHIT:          0  dMISS:          0  itACCESS:          0  itHIT:          0  itMISS:          0  dtACCESS:          0  dtHIT:          0  dtMISS:          0
cpu0_L1I RFO          ACCESS:          0  HIT:          0  MISS:          0  iACCESS:          0  iHIT:          0  iMISS:          0  dACCESS:          0  dHIT:          0  dMISS:          0  itACCESS:          0  itHIT:          0  itMISS:          0  dtACCESS:          0  dtHIT:          0  dtMISS:          0
cpu0_L1I PREFETCH     ACCESS:   25215573  HIT:   19089662  MISS:    6125911  iACCESS:   25215573  iHIT:   19089662  iMISS:    6125911  dACCESS:          0  dHIT:          0  dMISS:          0  itACCESS:          0  itHIT:          0  itMISS:          0  dtACCESS:          0  dtHIT:          0  dtMISS:          0
cpu0_L1I WRITE        ACCESS:          0  HIT:          0  MISS:          0  iACCESS:          0  iHIT:          0  iMISS:          0  dACCESS:          0  dHIT:          0  dMISS:          0  itACCESS:          0  itHIT:          0  itMISS:          0  dtACCESS:          0  dtHIT:          0  dtMISS:          0
cpu0_L1I TRANSLATION  ACCESS:          0  HIT:          0  MISS:          0  iACCESS:          0  iHIT:          0  iMISS:          0  dACCESS:          0  dHIT:          0  dMISS:          0  itACCESS:          0  itHIT:          0  itMISS:          0  dtACCESS:          0  dtHIT:          0  dtMISS:          0
cpu0_L1I PREFETCH  REQUESTED:   27488572  ISSUED:   27485725  CROSSED:          0  USEFUL:    1946583  USELESS:     628947
cpu0_L1I AVERAGE iMISS LATENCY: 14.1819 cycles
cpu0_L1I AVERAGE dMISS LATENCY: 0 cycles
cpu0_L1I AVERAGE itMISS LATENCY: 0 cycles
cpu0_L1I AVERAGE dtMISS LATENCY: 0 cycles
cpu0_L1I PAGE CROSSINGS (TLB HIT):         0 
cpu0_L1I PAGE CROSSINGS (TLB MISS):         0 
cpu0_L1I AVERAGE MISS LATENCY: 14.1819 cycles
cpu0_ITLB TOTAL       ACCESS:   29461936  HIT:   27538973  MISS:    1922963  iACCESS:   29461936  iHIT:   27538973  iMISS:    1922963  dACCESS:          0  dHIT:          0  dMISS:          0  itACCESS:          0  itHIT:          0  itMISS:          0  dtACCESS:          0  dtHIT:          0  dtMISS:          0
cpu0_ITLB LOAD         ACCESS:   29461936  HIT:   27538973  MISS:    1922963  iACCESS:   29461936  iHIT:   27538973  iMISS:    1922963  dACCESS:          0  dHIT:          0  dMISS:          0  itACCESS:          0  itHIT:          0  itMISS:          0  dtACCESS:          0  dtHIT:          0  dtMISS:          0
cpu0_ITLB RFO          ACCESS:          0  HIT:          0  MISS:          0  iACCESS:          0  iHIT:          0  iMISS:          0  dACCESS:          0  dHIT:          0  dMISS:          0  itACCESS:          0  itHIT:          0  itMISS:          0  dtACCESS:          0  dtHIT:          0  dtMISS:          0
cpu0_ITLB PREFETCH     ACCESS:          0  HIT:          0  MISS:          0  iACCESS:          0  iHIT:          0  iMISS:          0  dACCESS:          0  dHIT:          0  dMISS:          0  itACCESS:          0  itHIT:          0  itMISS:          0  dtACCESS:          0  dtHIT:          0  dtMISS:          0
cpu0_ITLB WRITE        ACCESS:          0  HIT:          0  MISS:          0  iACCESS:          0  iHIT:          0  iMISS:          0  dACCESS:          0  dHIT:          0  dMISS:          0  itACCESS:          0  itHIT:          0  itMISS:          0  dtACCESS:          0  dtHIT:          0  dtMISS:          0
cpu0_ITLB TRANSLATION  ACCESS:          0  HIT:          0  MISS:          0  iACCESS:          0  iHIT:          0  iMISS:          0  dACCESS:          0  dHIT:          0  dMISS:          0  itACCESS:          0  itHIT:          0  itMISS:          0  dtACCESS:          0  dtHIT:          0  dtMISS:          0
cpu0_ITLB PREFETCH  REQUESTED:          0  ISSUED:          0  CROSSED:          0  USEFUL:     317671  USELESS:      63323
cpu0_ITLB AVERAGE iMISS LATENCY: 2.87348 cycles
cpu0_ITLB AVERAGE dMISS LATENCY: 0 cycles
cpu0_ITLB AVERAGE itMISS LATENCY: 0 cycles
cpu0_ITLB AVERAGE dtMISS LATENCY: 0 cycles
cpu0_ITLB PAGE CROSSINGS (TLB HIT):         0 
cpu0_ITLB PAGE CROSSINGS (TLB MISS):         0 
cpu0_ITLB AVERAGE MISS LATENCY: 2.87348 cycles
cpu0_DTLB TOTAL       ACCESS:   27765505  HIT:   25687063  MISS:    2078442  iACCESS:          0  iHIT:          0  iMISS:          0  dACCESS:   27765505  dHIT:   25687063  dMISS:    2078442  itACCESS:          0  itHIT:          0  itMISS:          0  dtACCESS:          0  dtHIT:          0  dtMISS:          0
cpu0_DTLB LOAD         ACCESS:   27765505  HIT:   25687063  MISS:    2078442  iACCESS:          0  iHIT:          0  iMISS:          0  dACCESS:   27765505  dHIT:   25687063  dMISS:    2078442  itACCESS:          0  itHIT:          0  itMISS:          0  dtACCESS:          0  dtHIT:          0  dtMISS:          0
cpu0_DTLB RFO          ACCESS:          0  HIT:          0  MISS:          0  iACCESS:          0  iHIT:          0  iMISS:          0  dACCESS:          0  dHIT:          0  dMISS:          0  itACCESS:          0  itHIT:          0  itMISS:          0  dtACCESS:          0  dtHIT:          0  dtMISS:          0
cpu0_DTLB PREFETCH     ACCESS:          0  HIT:          0  MISS:          0  iACCESS:          0  iHIT:          0  iMISS:          0  dACCESS:          0  dHIT:          0  dMISS:          0  itACCESS:          0  itHIT:          0  itMISS:          0  dtACCESS:          0  dtHIT:          0  dtMISS:          0
cpu0_DTLB WRITE        ACCESS:          0  HIT:          0  MISS:          0  iACCESS:          0  iHIT:          0  iMISS:          0  dACCESS:          0  dHIT:          0  dMISS:          0  itACCESS:          0  itHIT:          0  itMISS:          0  dtACCESS:          0  dtHIT:          0  dtMISS:          0
cpu0_DTLB TRANSLATION  ACCESS:          0  HIT:          0  MISS:          0  iACCESS:          0  iHIT:          0  iMISS:          0  dACCESS:          0  dHIT:          0  dMISS:          0  itACCESS:          0  itHIT:          0  itMISS:          0  dtACCESS:          0  dtHIT:          0  dtMISS:          0
cpu0_DTLB PREFETCH  REQUESTED:          0  ISSUED:          0  CROSSED:          0  USEFUL:          0  USELESS:          0
cpu0_DTLB AVERAGE iMISS LATENCY: 0 cycles
cpu0_DTLB AVERAGE dMISS LATENCY: 8.91612 cycles
cpu0_DTLB AVERAGE itMISS LATENCY: 0 cycles
cpu0_DTLB AVERAGE dtMISS LATENCY: 0 cycles
cpu0_DTLB PAGE CROSSINGS (TLB HIT):         0 
cpu0_DTLB PAGE CROSSINGS (TLB MISS):         0 
cpu0_DTLB AVERAGE MISS LATENCY: 8.91612 cycles
cpu0_STLB TOTAL       ACCESS:    1625940  HIT:    1451660  MISS:     174280  iACCESS:     381069  iHIT:     319960  iMISS:      61109  dACCESS:    1244871  dHIT:    1131700  dMISS:     113171  itACCESS:          0  itHIT:          0  itMISS:          0  dtACCESS:          0  dtHIT:          0  dtMISS:          0
cpu0_STLB LOAD         ACCESS:    1625940  HIT:    1451660  MISS:     174280  iACCESS:     381069  iHIT:     319960  iMISS:      61109  dACCESS:    1244871  dHIT:    1131700  dMISS:     113171  itACCESS:          0  itHIT:          0  itMISS:          0  dtACCESS:          0  dtHIT:          0  dtMISS:          0
cpu0_STLB RFO          ACCESS:          0  HIT:          0  MISS:          0  iACCESS:          0  iHIT:          0  iMISS:          0  dACCESS:          0  dHIT:          0  dMISS:          0  itACCESS:          0  itHIT:          0  itMISS:          0  dtACCESS:          0  dtHIT:          0  dtMISS:          0
cpu0_STLB PREFETCH     ACCESS:          0  HIT:          0  MISS:          0  iACCESS:          0  iHIT:          0  iMISS:          0  dACCESS:          0  dHIT:          0  dMISS:          0  itACCESS:          0  itHIT:          0  itMISS:          0  dtACCESS:          0  dtHIT:          0  dtMISS:          0
cpu0_STLB WRITE        ACCESS:          0  HIT:          0  MISS:          0  iACCESS:          0  iHIT:          0  iMISS:          0  dACCESS:          0  dHIT:          0  dMISS:          0  itACCESS:          0  itHIT:          0  itMISS:          0  dtACCESS:          0  dtHIT:          0  dtMISS:          0
cpu0_STLB TRANSLATION  ACCESS:          0  HIT:          0  MISS:          0  iACCESS:          0  iHIT:          0  iMISS:          0  dACCESS:          0  dHIT:          0  dMISS:          0  itACCESS:          0  itHIT:          0  itMISS:          0  dtACCESS:          0  dtHIT:          0  dtMISS:          0
cpu0_STLB PREFETCH  REQUESTED:          0  ISSUED:          0  CROSSED:          0  USEFUL:          0  USELESS:          0
cpu0_STLB AVERAGE iMISS LATENCY: 14.4237 cycles
cpu0_STLB AVERAGE dMISS LATENCY: 49.4398 cycles
cpu0_STLB AVERAGE itMISS LATENCY: 0 cycles
cpu0_STLB AVERAGE dtMISS LATENCY: 0 cycles
cpu0_STLB PAGE CROSSINGS (TLB HIT):         0 
cpu0_STLB PAGE CROSSINGS (TLB MISS):         0 
cpu0_STLB AVERAGE MISS LATENCY: 63.8634 cycles
cpu0_L1D TOTAL       ACCESS:   41621856  HIT:   38107597  MISS:    3514259  iACCESS:          0  iHIT:          0  iMISS:          0  dACCESS:   41384363  dHIT:   38086639  dMISS:    3297724  itACCESS:      66355  itHIT:       9585  itMISS:      56770  dtACCESS:     171138  dtHIT:      11373  dtMISS:     159765
cpu0_L1D LOAD         ACCESS:   18964235  HIT:   17468926  MISS:    1495309  iACCESS:          0  iHIT:          0  iMISS:          0  dACCESS:   18964235  dHIT:   17468926  dMISS:    1495309  itACCESS:          0  itHIT:          0  itMISS:          0  dtACCESS:          0  dtHIT:          0  dtMISS:          0
cpu0_L1D RFO          ACCESS:          0  HIT:          0  MISS:          0  iACCESS:          0  iHIT:          0  iMISS:          0  dACCESS:          0  dHIT:          0  dMISS:          0  itACCESS:          0  itHIT:          0  itMISS:          0  dtACCESS:          0  dtHIT:          0  dtMISS:          0
cpu0_L1D PREFETCH     ACCESS:   12239568  HIT:   10875432  MISS:    1364136  iACCESS:          0  iHIT:          0  iMISS:          0  dACCESS:   12239568  dHIT:   10875432  dMISS:    1364136  itACCESS:          0  itHIT:          0  itMISS:          0  dtACCESS:          0  dtHIT:          0  dtMISS:          0
cpu0_L1D WRITE        ACCESS:   10180560  HIT:    9742281  MISS:     438279  iACCESS:          0  iHIT:          0  iMISS:          0  dACCESS:   10180560  dHIT:    9742281  dMISS:     438279  itACCESS:          0  itHIT:          0  itMISS:          0  dtACCESS:          0  dtHIT:          0  dtMISS:          0
cpu0_L1D TRANSLATION  ACCESS:     237493  HIT:      20958  MISS:     216535  iACCESS:          0  iHIT:          0  iMISS:          0  dACCESS:          0  dHIT:          0  dMISS:          0  itACCESS:      66355  itHIT:       9585  itMISS:      56770  dtACCESS:     171138  dtHIT:      11373  dtMISS:     159765
cpu0_L1D PREFETCH  REQUESTED:   18964235  ISSUED:   17084684  CROSSED:          0  USEFUL:     306246  USELESS:     702582
cpu0_L1D AVERAGE iMISS LATENCY: 0 cycles
cpu0_L1D AVERAGE dMISS LATENCY: 36.2552 cycles
cpu0_L1D AVERAGE itMISS LATENCY: 0.562301 cycles
cpu0_L1D AVERAGE dtMISS LATENCY: 1.75254 cycles
cpu0_L1D PAGE CROSSINGS (TLB HIT):         0 
cpu0_L1D PAGE CROSSINGS (TLB MISS):         0 
cpu0_L1D AVERAGE MISS LATENCY: 38.57 cycles
cpu0_L2C TOTAL       ACCESS:    7020786  HIT:    1249304  MISS:    5771482  iACCESS:    3309715  iHIT:     696897  iMISS:    2612818  dACCESS:    3505741  dHIT:     385946  dMISS:    3119795  itACCESS:      56770  itHIT:      46262  itMISS:      10508  dtACCESS:     148560  dtHIT:     120199  dtMISS:      28361
cpu0_L2C LOAD         ACCESS:    1699174  HIT:     130989  MISS:    1568185  iACCESS:     772399  iHIT:      91346  iMISS:     681053  dACCESS:     926775  dHIT:      39643  dMISS:     887132  itACCESS:          0  itHIT:          0  itMISS:          0  dtACCESS:          0  dtHIT:          0  dtMISS:          0
cpu0_L2C RFO          ACCESS:     158922  HIT:       8344  MISS:     150578  iACCESS:          0  iHIT:          0  iMISS:          0  dACCESS:     158922  dHIT:       8344  dMISS:     150578  itACCESS:          0  itHIT:          0  itMISS:          0  dtACCESS:          0  dtHIT:          0  dtMISS:          0
cpu0_L2C PREFETCH     ACCESS:    4677605  HIT:     885348  MISS:    3792257  iACCESS:    2537316  iHIT:     605551  iMISS:    1931765  dACCESS:    2140289  dHIT:     279797  dMISS:    1860492  itACCESS:          0  itHIT:          0  itMISS:          0  dtACCESS:          0  dtHIT:          0  dtMISS:          0
cpu0_L2C WRITE        ACCESS:     279755  HIT:      58162  MISS:     221593  iACCESS:          0  iHIT:          0  iMISS:          0  dACCESS:     279755  dHIT:      58162  dMISS:     221593  itACCESS:          0  itHIT:          0  itMISS:          0  dtACCESS:          0  dtHIT:          0  dtMISS:          0
cpu0_L2C TRANSLATION  ACCESS:     205330  HIT:     166461  MISS:      38869  iACCESS:          0  iHIT:          0  iMISS:          0  dACCESS:          0  dHIT:          0  dMISS:          0  itACCESS:      56770  itHIT:      46262  itMISS:      10508  dtACCESS:     148560  dtHIT:     120199  dtMISS:      28361
cpu0_L2C PREFETCH  REQUESTED:    1392119  ISSUED:    1392119  CROSSED:          0  USEFUL:     430145  USELESS:     395927
cpu0_L2C AVERAGE iMISS LATENCY: 15.5671 cycles
cpu0_L2C AVERAGE dMISS LATENCY: 26.0292 cycles
cpu0_L2C AVERAGE itMISS LATENCY: 0.251808 cycles
cpu0_L2C AVERAGE dtMISS LATENCY: 0.8292 cycles
cpu0_L2C PAGE CROSSINGS (TLB HIT):         0 
cpu0_L2C PAGE CROSSINGS (TLB MISS):         0 
cpu0_L2C AVERAGE MISS LATENCY: 42.6773 cycles
LLC TOTAL       ACCESS:    5690887  HIT:    4799161  MISS:     891726  iACCESS:    2559061  iHIT:    2281602  iMISS:     277459  dACCESS:    3092957  dHIT:    2509636  dMISS:     583321  itACCESS:      10508  itHIT:       3259  itMISS:       7249  dtACCESS:      28361  dtHIT:       4664  dtMISS:      23697
LLC LOAD         ACCESS:    1565985  HIT:    1359335  MISS:     206650  iACCESS:     679455  iHIT:     620415  iMISS:      59040  dACCESS:     886530  dHIT:     738920  dMISS:     147610  itACCESS:          0  itHIT:          0  itMISS:          0  dtACCESS:          0  dtHIT:          0  dtMISS:          0
LLC RFO          ACCESS:     150576  HIT:     108589  MISS:      41987  iACCESS:          0  iHIT:          0  iMISS:          0  dACCESS:     150576  dHIT:     108589  dMISS:      41987  itACCESS:          0  itHIT:          0  itMISS:          0  dtACCESS:          0  dtHIT:          0  dtMISS:          0
LLC PREFETCH     ACCESS:    3680887  HIT:    3068744  MISS:     612143  iACCESS:    1879606  iHIT:    1661187  iMISS:     218419  dACCESS:    1801281  dHIT:    1407557  dMISS:     393724  itACCESS:          0  itHIT:          0  itMISS:          0  dtACCESS:          0  dtHIT:          0  dtMISS:          0
LLC WRITE        ACCESS:     254570  HIT:     254570  MISS:          0  iACCESS:          0  iHIT:          0  iMISS:          0  dACCESS:     254570  dHIT:     254570  dMISS:          0  itACCESS:          0  itHIT:          0  itMISS:          0  dtACCESS:          0  dtHIT:          0  dtMISS:          0
LLC TRANSLATION  ACCESS:      38869  HIT:       7923  MISS:      30946  iACCESS:          0  iHIT:          0  iMISS:          0  dACCESS:          0  dHIT:          0  dMISS:          0  itACCESS:      10508  itHIT:       3259  itMISS:       7249  dtACCESS:      28361  dtHIT:       4664  dtMISS:      23697
LLC PREFETCH  REQUESTED:          0  ISSUED:          0  CROSSED:          0  USEFUL:          0  USELESS:          0
LLC AVERAGE iMISS LATENCY: 45.3226 cycles
LLC AVERAGE dMISS LATENCY: 107.198 cycles
LLC AVERAGE itMISS LATENCY: 1.39829 cycles
LLC AVERAGE dtMISS LATENCY: 4.73954 cycles
LLC PAGE CROSSINGS (TLB HIT):         0 
LLC PAGE CROSSINGS (TLB MISS):         0 
LLC AVERAGE MISS LATENCY: 158.659 cycles

PageTableWalker TOTAL       ACCESS:      88233  
PageTableWalker AVERAGE LATENCY: 4.16686 cycles
PageTableWalker TOTAL LATENCY: 367654 cycles

DRAM Statistics
Channel 0
 RQ ROW_BUFFER_HIT:     254568
  ROW_BUFFER_MISS:     637079
 AVG DBUS CONGESTED CYCLE:    3.63676
 WQ ROW_BUFFER_HIT:      21933
  ROW_BUFFER_MISS:      29804  FULL:          0

