last_page:0x200000000000000
VMEM_RES_CAP:0x100000
PAGE_SIZE:4096
LOG2_PAGE_SIZE:12
LOG2_PAGE_TABLE_SIZE:9
page_table_levels:5
WARNING: physical memory size is smaller than virtual memory size
FDiP enabled with aggresivity 16

*** ChampSim Multicore Out-of-Order Simulator ***

Warmup Instructions: 50000000
Simulation Instructions: 100000000
Number of CPUs: 1
Small page size: 4096
Large page size: 2097152

CPU 0 Bimodal branch predictor
Basic BTB sets: 1024 ways: 8 indirect buffer size: 4096 RAS size: 64
Instruction page size distrubution: 0
Loading instruction page size distribution from /home/bsc/bsc018186/scratch/itp_asplos25_AE/dump/srv495_ap.pdst
Data page size distrubution: 0
Loading data page size distribution from /home/bsc/bsc018186/scratch/itp_asplos25_AE/dump/srv495_ap.pdst
cpu0_L2C IP-based stride prefetcher
cpu0_L2C is using PTP replacement policy:
	TLB_STRESS_THRESHOLD:0
	PTE_EVICTION_RATIO:0
cpu0_L1D next line prefetcher
cpu0_L1I next line prefetcher
Off-chip DRAM Size: 4 GiB Channels: 1 Width: 64-bit Data Rate: 3200 MT/s
Heartbeat CPU 0 instructions: 10000000 cycles: 2500192 heartbeat IPC: 3.9997 cumulative IPC: 3.9997 (Simulation time: 0 hr 0 min 38 sec) 
Heartbeat CPU 0 instructions: 20000002 cycles: 5000210 heartbeat IPC: 3.99998 cumulative IPC: 3.99984 (Simulation time: 0 hr 1 min 18 sec) 
Heartbeat CPU 0 instructions: 30000002 cycles: 7500336 heartbeat IPC: 3.9998 cumulative IPC: 3.99983 (Simulation time: 0 hr 1 min 59 sec) 
Heartbeat CPU 0 instructions: 40000000 cycles: 10000366 heartbeat IPC: 3.99996 cumulative IPC: 3.99986 (Simulation time: 0 hr 2 min 39 sec) 
Heartbeat CPU 0 instructions: 50000000 cycles: 12500424 heartbeat IPC: 3.99991 cumulative IPC: 3.99987 (Simulation time: 0 hr 3 min 20 sec) 
Warmup finished CPU 0 instructions: 50000000 cycles: 12500425 cumulative IPC: 3.99987 (Simulation time: 0 hr 3 min 20 sec) 

Warmup complete CPU 0 instructions: 50000000 cycles: 12500425 (Simulation time: 0 hr 3 min 20 sec) 

Heartbeat CPU 0 instructions: 60000000 cycles: 31100727 heartbeat IPC: 0.537626 cumulative IPC: 0.537626 (Simulation time: 0 hr 4 min 29 sec) 
Heartbeat CPU 0 instructions: 70000000 cycles: 50369370 heartbeat IPC: 0.518978 cumulative IPC: 0.528138 (Simulation time: 0 hr 5 min 39 sec) 
Heartbeat CPU 0 instructions: 80000001 cycles: 69403493 heartbeat IPC: 0.525373 cumulative IPC: 0.527213 (Simulation time: 0 hr 6 min 50 sec) 
Heartbeat CPU 0 instructions: 90000004 cycles: 88387434 heartbeat IPC: 0.526762 cumulative IPC: 0.5271 (Simulation time: 0 hr 7 min 59 sec) 
Heartbeat CPU 0 instructions: 100000004 cycles: 107630266 heartbeat IPC: 0.519675 cumulative IPC: 0.525598 (Simulation time: 0 hr 9 min 10 sec) 
*** Reached end of trace: /gpfs/projects/bsc18/MN4/bsc18/romol/ChampSim/traces/qualcomm_srv/srv495_ap.champsimtrace.xz
Heartbeat CPU 0 instructions: 110000000 cycles: 127139947 heartbeat IPC: 0.512566 cumulative IPC: 0.52338 (Simulation time: 0 hr 10 min 20 sec) 
Heartbeat CPU 0 instructions: 120000004 cycles: 147777216 heartbeat IPC: 0.484561 cumulative IPC: 0.517458 (Simulation time: 0 hr 11 min 32 sec) 
Heartbeat CPU 0 instructions: 130000001 cycles: 168277609 heartbeat IPC: 0.487796 cumulative IPC: 0.513555 (Simulation time: 0 hr 12 min 44 sec) 
Heartbeat CPU 0 instructions: 140000002 cycles: 188984910 heartbeat IPC: 0.482922 cumulative IPC: 0.50996 (Simulation time: 0 hr 13 min 56 sec) 
Heartbeat CPU 0 instructions: 150000002 cycles: 210070866 heartbeat IPC: 0.47425 cumulative IPC: 0.506149 (Simulation time: 0 hr 15 min 9 sec) 
Simulation finished CPU 0 instructions: 100000002 cycles: 197570442 cumulative IPC: 0.506149 (Simulation time: 0 hr 15 min 9 sec) 

Simulation complete CPU 0 instructions: 100000002 cycles: 197570442 (Simulation time: 0 hr 15 min 9 sec) 


ChampSim completed all CPUs

Saving instructions large page distribution to /home/bsc/bsc018186/scratch/itp_asplos25_AE/dump/srv495_ap.pdst...
Saving data large page distribution to /home/bsc/bsc018186/scratch/itp_asplos25_AE/dump/srv495_ap.pdst...
=== Simulation ===
CPU 0 runs /gpfs/projects/bsc18/MN4/bsc18/romol/ChampSim/traces/qualcomm_srv/srv495_ap.champsimtrace.xz

Region of Interest Statistics

CPU 0 cumulative IPC: 0.506149 instructions: 100000002 cycles: 197570442
CPU 0 Branch Prediction Accuracy: 80.2549% MPKI: 35.6076 Average ROB Occupancy at Mispredict: 10.5582
Branch type MPKI
BRANCH_DIRECT_JUMP: 1.32005
BRANCH_INDIRECT: 17.7862
BRANCH_CONDITIONAL: 11.5962
BRANCH_DIRECT_CALL: 2.47777
BRANCH_INDIRECT_CALL: 0.69295
BRANCH_RETURN: 1.73447

Instructions large pages: 0
Instructions small pages: 1075
Large page distribution for instructions: 0%

Data large pages: 0
Data small pages: 4728
Large page distribution for data: 0%

cpu0_L1I TOTAL       ACCESS:   35506518  HIT:   27391716  MISS:    8114802  iACCESS:   35506518  iHIT:   27391716  iMISS:    8114802  dACCESS:          0  dHIT:          0  dMISS:          0  itACCESS:          0  itHIT:          0  itMISS:          0  dtACCESS:          0  dtHIT:          0  dtMISS:          0
cpu0_L1I LOAD         ACCESS:   10234768  HIT:    8008867  MISS:    2225901  iACCESS:   10234768  iHIT:    8008867  iMISS:    2225901  dACCESS:          0  dHIT:          0  dMISS:          0  itACCESS:          0  itHIT:          0  itMISS:          0  dtACCESS:          0  dtHIT:          0  dtMISS:          0
cpu0_L1I RFO          ACCESS:          0  HIT:          0  MISS:          0  iACCESS:          0  iHIT:          0  iMISS:          0  dACCESS:          0  dHIT:          0  dMISS:          0  itACCESS:          0  itHIT:          0  itMISS:          0  dtACCESS:          0  dtHIT:          0  dtMISS:          0
cpu0_L1I PREFETCH     ACCESS:   25271750  HIT:   19382849  MISS:    5888901  iACCESS:   25271750  iHIT:   19382849  iMISS:    5888901  dACCESS:          0  dHIT:          0  dMISS:          0  itACCESS:          0  itHIT:          0  itMISS:          0  dtACCESS:          0  dtHIT:          0  dtMISS:          0
cpu0_L1I WRITE        ACCESS:          0  HIT:          0  MISS:          0  iACCESS:          0  iHIT:          0  iMISS:          0  dACCESS:          0  dHIT:          0  dMISS:          0  itACCESS:          0  itHIT:          0  itMISS:          0  dtACCESS:          0  dtHIT:          0  dtMISS:          0
cpu0_L1I TRANSLATION  ACCESS:          0  HIT:          0  MISS:          0  iACCESS:          0  iHIT:          0  iMISS:          0  dACCESS:          0  dHIT:          0  dMISS:          0  itACCESS:          0  itHIT:          0  itMISS:          0  dtACCESS:          0  dtHIT:          0  dtMISS:          0
cpu0_L1I PREFETCH  REQUESTED:   27567711  ISSUED:   27567192  CROSSED:          0  USEFUL:    1975002  USELESS:     652766
cpu0_L1I AVERAGE iMISS LATENCY: 19.6719 cycles
cpu0_L1I AVERAGE dMISS LATENCY: 0 cycles
cpu0_L1I AVERAGE itMISS LATENCY: 0 cycles
cpu0_L1I AVERAGE dtMISS LATENCY: 0 cycles
cpu0_L1I PAGE CROSSINGS (TLB HIT):         0 
cpu0_L1I PAGE CROSSINGS (TLB MISS):         0 
cpu0_L1I AVERAGE MISS LATENCY: 19.6719 cycles
cpu0_ITLB TOTAL       ACCESS:   29857945  HIT:   27912848  MISS:    1945097  iACCESS:   29857945  iHIT:   27912848  iMISS:    1945097  dACCESS:          0  dHIT:          0  dMISS:          0  itACCESS:          0  itHIT:          0  itMISS:          0  dtACCESS:          0  dtHIT:          0  dtMISS:          0
cpu0_ITLB LOAD         ACCESS:   29857945  HIT:   27912848  MISS:    1945097  iACCESS:   29857945  iHIT:   27912848  iMISS:    1945097  dACCESS:          0  dHIT:          0  dMISS:          0  itACCESS:          0  itHIT:          0  itMISS:          0  dtACCESS:          0  dtHIT:          0  dtMISS:          0
cpu0_ITLB RFO          ACCESS:          0  HIT:          0  MISS:          0  iACCESS:          0  iHIT:          0  iMISS:          0  dACCESS:          0  dHIT:          0  dMISS:          0  itACCESS:          0  itHIT:          0  itMISS:          0  dtACCESS:          0  dtHIT:          0  dtMISS:          0
cpu0_ITLB PREFETCH     ACCESS:          0  HIT:          0  MISS:          0  iACCESS:          0  iHIT:          0  iMISS:          0  dACCESS:          0  dHIT:          0  dMISS:          0  itACCESS:          0  itHIT:          0  itMISS:          0  dtACCESS:          0  dtHIT:          0  dtMISS:          0
cpu0_ITLB WRITE        ACCESS:          0  HIT:          0  MISS:          0  iACCESS:          0  iHIT:          0  iMISS:          0  dACCESS:          0  dHIT:          0  dMISS:          0  itACCESS:          0  itHIT:          0  itMISS:          0  dtACCESS:          0  dtHIT:          0  dtMISS:          0
cpu0_ITLB TRANSLATION  ACCESS:          0  HIT:          0  MISS:          0  iACCESS:          0  iHIT:          0  iMISS:          0  dACCESS:          0  dHIT:          0  dMISS:          0  itACCESS:          0  itHIT:          0  itMISS:          0  dtACCESS:          0  dtHIT:          0  dtMISS:          0
cpu0_ITLB PREFETCH  REQUESTED:          0  ISSUED:          0  CROSSED:          0  USEFUL:     329960  USELESS:      61693
cpu0_ITLB AVERAGE iMISS LATENCY: 5.80572 cycles
cpu0_ITLB AVERAGE dMISS LATENCY: 0 cycles
cpu0_ITLB AVERAGE itMISS LATENCY: 0 cycles
cpu0_ITLB AVERAGE dtMISS LATENCY: 0 cycles
cpu0_ITLB PAGE CROSSINGS (TLB HIT):         0 
cpu0_ITLB PAGE CROSSINGS (TLB MISS):         0 
cpu0_ITLB AVERAGE MISS LATENCY: 5.80572 cycles
cpu0_DTLB TOTAL       ACCESS:   27989104  HIT:   26047207  MISS:    1941897  iACCESS:          0  iHIT:          0  iMISS:          0  dACCESS:   27989104  dHIT:   26047207  dMISS:    1941897  itACCESS:          0  itHIT:          0  itMISS:          0  dtACCESS:          0  dtHIT:          0  dtMISS:          0
cpu0_DTLB LOAD         ACCESS:   27989104  HIT:   26047207  MISS:    1941897  iACCESS:          0  iHIT:          0  iMISS:          0  dACCESS:   27989104  dHIT:   26047207  dMISS:    1941897  itACCESS:          0  itHIT:          0  itMISS:          0  dtACCESS:          0  dtHIT:          0  dtMISS:          0
cpu0_DTLB RFO          ACCESS:          0  HIT:          0  MISS:          0  iACCESS:          0  iHIT:          0  iMISS:          0  dACCESS:          0  dHIT:          0  dMISS:          0  itACCESS:          0  itHIT:          0  itMISS:          0  dtACCESS:          0  dtHIT:          0  dtMISS:          0
cpu0_DTLB PREFETCH     ACCESS:          0  HIT:          0  MISS:          0  iACCESS:          0  iHIT:          0  iMISS:          0  dACCESS:          0  dHIT:          0  dMISS:          0  itACCESS:          0  itHIT:          0  itMISS:          0  dtACCESS:          0  dtHIT:          0  dtMISS:          0
cpu0_DTLB WRITE        ACCESS:          0  HIT:          0  MISS:          0  iACCESS:          0  iHIT:          0  iMISS:          0  dACCESS:          0  dHIT:          0  dMISS:          0  itACCESS:          0  itHIT:          0  itMISS:          0  dtACCESS:          0  dtHIT:          0  dtMISS:          0
cpu0_DTLB TRANSLATION  ACCESS:          0  HIT:          0  MISS:          0  iACCESS:          0  iHIT:          0  iMISS:          0  dACCESS:          0  dHIT:          0  dMISS:          0  itACCESS:          0  itHIT:          0  itMISS:          0  dtACCESS:          0  dtHIT:          0  dtMISS:          0
cpu0_DTLB PREFETCH  REQUESTED:          0  ISSUED:          0  CROSSED:          0  USEFUL:          0  USELESS:          0
cpu0_DTLB AVERAGE iMISS LATENCY: 0 cycles
cpu0_DTLB AVERAGE dMISS LATENCY: 15.6233 cycles
cpu0_DTLB AVERAGE itMISS LATENCY: 0 cycles
cpu0_DTLB AVERAGE dtMISS LATENCY: 0 cycles
cpu0_DTLB PAGE CROSSINGS (TLB HIT):         0 
cpu0_DTLB PAGE CROSSINGS (TLB MISS):         0 
cpu0_DTLB AVERAGE MISS LATENCY: 15.6233 cycles
cpu0_STLB TOTAL       ACCESS:    1611236  HIT:    1373996  MISS:     237240  iACCESS:     391657  iHIT:     301833  iMISS:      89824  dACCESS:    1219579  dHIT:    1072163  dMISS:     147416  itACCESS:          0  itHIT:          0  itMISS:          0  dtACCESS:          0  dtHIT:          0  dtMISS:          0
cpu0_STLB LOAD         ACCESS:    1611236  HIT:    1373996  MISS:     237240  iACCESS:     391657  iHIT:     301833  iMISS:      89824  dACCESS:    1219579  dHIT:    1072163  dMISS:     147416  itACCESS:          0  itHIT:          0  itMISS:          0  dtACCESS:          0  dtHIT:          0  dtMISS:          0
cpu0_STLB RFO          ACCESS:          0  HIT:          0  MISS:          0  iACCESS:          0  iHIT:          0  iMISS:          0  dACCESS:          0  dHIT:          0  dMISS:          0  itACCESS:          0  itHIT:          0  itMISS:          0  dtACCESS:          0  dtHIT:          0  dtMISS:          0
cpu0_STLB PREFETCH     ACCESS:          0  HIT:          0  MISS:          0  iACCESS:          0  iHIT:          0  iMISS:          0  dACCESS:          0  dHIT:          0  dMISS:          0  itACCESS:          0  itHIT:          0  itMISS:          0  dtACCESS:          0  dtHIT:          0  dtMISS:          0
cpu0_STLB WRITE        ACCESS:          0  HIT:          0  MISS:          0  iACCESS:          0  iHIT:          0  iMISS:          0  dACCESS:          0  dHIT:          0  dMISS:          0  itACCESS:          0  itHIT:          0  itMISS:          0  dtACCESS:          0  dtHIT:          0  dtMISS:          0
cpu0_STLB TRANSLATION  ACCESS:          0  HIT:          0  MISS:          0  iACCESS:          0  iHIT:          0  iMISS:          0  dACCESS:          0  dHIT:          0  dMISS:          0  itACCESS:          0  itHIT:          0  itMISS:          0  dtACCESS:          0  dtHIT:          0  dtMISS:          0
cpu0_STLB PREFETCH  REQUESTED:          0  ISSUED:          0  CROSSED:          0  USEFUL:          0  USELESS:          0
cpu0_STLB AVERAGE iMISS LATENCY: 34.4166 cycles
cpu0_STLB AVERAGE dMISS LATENCY: 86.7659 cycles
cpu0_STLB AVERAGE itMISS LATENCY: 0 cycles
cpu0_STLB AVERAGE dtMISS LATENCY: 0 cycles
cpu0_STLB PAGE CROSSINGS (TLB HIT):         0 
cpu0_STLB PAGE CROSSINGS (TLB MISS):         0 
cpu0_STLB AVERAGE MISS LATENCY: 121.183 cycles
cpu0_L1D TOTAL       ACCESS:   42558455  HIT:   38416024  MISS:    4142431  iACCESS:          0  iHIT:          0  iMISS:          0  dACCESS:   42260948  dHIT:   38388060  dMISS:    3872888  itACCESS:      96244  itHIT:      15757  itMISS:      80487  dtACCESS:     201263  dtHIT:      12207  dtMISS:     189056
cpu0_L1D LOAD         ACCESS:   19357476  HIT:   17601534  MISS:    1755942  iACCESS:          0  iHIT:          0  iMISS:          0  dACCESS:   19357476  dHIT:   17601534  dMISS:    1755942  itACCESS:          0  itHIT:          0  itMISS:          0  dtACCESS:          0  dtHIT:          0  dtMISS:          0
cpu0_L1D RFO          ACCESS:          0  HIT:          0  MISS:          0  iACCESS:          0  iHIT:          0  iMISS:          0  dACCESS:          0  dHIT:          0  dMISS:          0  itACCESS:          0  itHIT:          0  itMISS:          0  dtACCESS:          0  dtHIT:          0  dtMISS:          0
cpu0_L1D PREFETCH     ACCESS:   12739943  HIT:   11111683  MISS:    1628260  iACCESS:          0  iHIT:          0  iMISS:          0  dACCESS:   12739943  dHIT:   11111683  dMISS:    1628260  itACCESS:          0  itHIT:          0  itMISS:          0  dtACCESS:          0  dtHIT:          0  dtMISS:          0
cpu0_L1D WRITE        ACCESS:   10163529  HIT:    9674843  MISS:     488686  iACCESS:          0  iHIT:          0  iMISS:          0  dACCESS:   10163529  dHIT:    9674843  dMISS:     488686  itACCESS:          0  itHIT:          0  itMISS:          0  dtACCESS:          0  dtHIT:          0  dtMISS:          0
cpu0_L1D TRANSLATION  ACCESS:     297507  HIT:      27964  MISS:     269543  iACCESS:          0  iHIT:          0  iMISS:          0  dACCESS:          0  dHIT:          0  dMISS:          0  itACCESS:      96244  itHIT:      15757  itMISS:      80487  dtACCESS:     201263  dtHIT:      12207  dtMISS:     189056
cpu0_L1D PREFETCH  REQUESTED:   19357476  ISSUED:   17281179  CROSSED:          0  USEFUL:     312869  USELESS:     708069
cpu0_L1D AVERAGE iMISS LATENCY: 0 cycles
cpu0_L1D AVERAGE dMISS LATENCY: 41.5271 cycles
cpu0_L1D AVERAGE itMISS LATENCY: 1.78454 cycles
cpu0_L1D AVERAGE dtMISS LATENCY: 4.49118 cycles
cpu0_L1D PAGE CROSSINGS (TLB HIT):         0 
cpu0_L1D PAGE CROSSINGS (TLB MISS):         0 
cpu0_L1D AVERAGE MISS LATENCY: 47.8028 cycles
cpu0_L2C TOTAL       ACCESS:    7277788  HIT:    2369573  MISS:    4908215  iACCESS:    3354063  iHIT:    1294631  iMISS:    2059432  dACCESS:    3658989  dHIT:     958952  dMISS:    2700037  itACCESS:      80487  itHIT:      36655  itMISS:      43832  dtACCESS:     184249  dtHIT:      79335  dtMISS:     104914
cpu0_L2C LOAD         ACCESS:    1716543  HIT:     489460  MISS:    1227083  iACCESS:     763218  iHIT:     280225  iMISS:     482993  dACCESS:     953325  dHIT:     209235  dMISS:     744090  itACCESS:          0  itHIT:          0  itMISS:          0  dtACCESS:          0  dtHIT:          0  dtMISS:          0
cpu0_L2C RFO          ACCESS:     165651  HIT:      33245  MISS:     132406  iACCESS:          0  iHIT:          0  iMISS:          0  dACCESS:     165651  dHIT:      33245  dMISS:     132406  itACCESS:          0  itHIT:          0  itMISS:          0  dtACCESS:          0  dtHIT:          0  dtMISS:          0
cpu0_L2C PREFETCH     ACCESS:    4854994  HIT:    1576259  MISS:    3278735  iACCESS:    2590845  iHIT:    1014406  iMISS:    1576439  dACCESS:    2264149  dHIT:     561853  dMISS:    1702296  itACCESS:          0  itHIT:          0  itMISS:          0  dtACCESS:          0  dtHIT:          0  dtMISS:          0
cpu0_L2C WRITE        ACCESS:     275864  HIT:     154619  MISS:     121245  iACCESS:          0  iHIT:          0  iMISS:          0  dACCESS:     275864  dHIT:     154619  dMISS:     121245  itACCESS:          0  itHIT:          0  itMISS:          0  dtACCESS:          0  dtHIT:          0  dtMISS:          0
cpu0_L2C TRANSLATION  ACCESS:     264736  HIT:     115990  MISS:     148746  iACCESS:          0  iHIT:          0  iMISS:          0  dACCESS:          0  dHIT:          0  dMISS:          0  itACCESS:      80487  itHIT:      36655  itMISS:      43832  dtACCESS:     184249  dtHIT:      79335  dtMISS:     104914
cpu0_L2C PREFETCH  REQUESTED:    1499592  ISSUED:    1499553  CROSSED:          0  USEFUL:     394430  USELESS:     378405
cpu0_L2C AVERAGE iMISS LATENCY: 26.4945 cycles
cpu0_L2C AVERAGE dMISS LATENCY: 44.8285 cycles
cpu0_L2C AVERAGE itMISS LATENCY: 1.34908 cycles
cpu0_L2C AVERAGE dtMISS LATENCY: 3.42949 cycles
cpu0_L2C PAGE CROSSINGS (TLB HIT):         0 
cpu0_L2C PAGE CROSSINGS (TLB MISS):         0 
cpu0_L2C AVERAGE MISS LATENCY: 76.1015 cycles
LLC TOTAL       ACCESS:    4805056  HIT:    3021832  MISS:    1783224  iACCESS:    1978708  iHIT:    1355002  iMISS:     623706  dACCESS:    2677602  dHIT:    1630814  dMISS:    1046788  itACCESS:      43832  itHIT:      10922  itMISS:      32910  dtACCESS:     104914  dtHIT:      25094  dtMISS:      79820
LLC LOAD         ACCESS:    1220860  HIT:     827006  MISS:     393854  iACCESS:     481640  iHIT:     349346  iMISS:     132294  dACCESS:     739220  dHIT:     477660  dMISS:     261560  itACCESS:          0  itHIT:          0  itMISS:          0  dtACCESS:          0  dtHIT:          0  dtMISS:          0
LLC RFO          ACCESS:     132399  HIT:      66660  MISS:      65739  iACCESS:          0  iHIT:          0  iMISS:          0  dACCESS:     132399  dHIT:      66660  dMISS:      65739  itACCESS:          0  itHIT:          0  itMISS:          0  dtACCESS:          0  dtHIT:          0  dtMISS:          0
LLC PREFETCH     ACCESS:    3096339  HIT:    1889694  MISS:    1206645  iACCESS:    1497068  iHIT:    1005656  iMISS:     491412  dACCESS:    1599271  dHIT:     884038  dMISS:     715233  itACCESS:          0  itHIT:          0  itMISS:          0  dtACCESS:          0  dtHIT:          0  dtMISS:          0
LLC WRITE        ACCESS:     206712  HIT:     202456  MISS:       4256  iACCESS:          0  iHIT:          0  iMISS:          0  dACCESS:     206712  dHIT:     202456  dMISS:       4256  itACCESS:          0  itHIT:          0  itMISS:          0  dtACCESS:          0  dtHIT:          0  dtMISS:          0
LLC TRANSLATION  ACCESS:     148746  HIT:      36016  MISS:     112730  iACCESS:          0  iHIT:          0  iMISS:          0  dACCESS:          0  dHIT:          0  dMISS:          0  itACCESS:      43832  itHIT:      10922  itMISS:      32910  dtACCESS:     104914  dtHIT:      25094  dtMISS:      79820
LLC PREFETCH  REQUESTED:          0  ISSUED:          0  CROSSED:          0  USEFUL:          0  USELESS:          0
LLC AVERAGE iMISS LATENCY: 51.3745 cycles
LLC AVERAGE dMISS LATENCY: 97.3401 cycles
LLC AVERAGE itMISS LATENCY: 3.22935 cycles
LLC AVERAGE dtMISS LATENCY: 8.28168 cycles
LLC PAGE CROSSINGS (TLB HIT):         0 
LLC PAGE CROSSINGS (TLB MISS):         0 
LLC AVERAGE MISS LATENCY: 160.226 cycles

PageTableWalker TOTAL       ACCESS:     119254  
PageTableWalker AVERAGE LATENCY: 3.80359 cycles
PageTableWalker TOTAL LATENCY: 453593 cycles

DRAM Statistics
Channel 0
 RQ ROW_BUFFER_HIT:     502806
  ROW_BUFFER_MISS:    1264683
 AVG DBUS CONGESTED CYCLE:    3.63861
 WQ ROW_BUFFER_HIT:      40925
  ROW_BUFFER_MISS:      31800  FULL:          0

