last_page:0x200000000000000
VMEM_RES_CAP:0x100000
PAGE_SIZE:4096
LOG2_PAGE_SIZE:12
LOG2_PAGE_TABLE_SIZE:9
page_table_levels:5
WARNING: physical memory size is smaller than virtual memory size
FDiP enabled with aggresivity 16

*** ChampSim Multicore Out-of-Order Simulator ***

Warmup Instructions: 50000000
Simulation Instructions: 100000000
Number of CPUs: 1
Small page size: 4096
Large page size: 2097152

CPU 0 Bimodal branch predictor
Basic BTB sets: 1024 ways: 8 indirect buffer size: 4096 RAS size: 64
Instruction page size distrubution: 0
Loading instruction page size distribution from /home/bsc/bsc018186/scratch/itp_asplos25_AE/dump/srv41_ap.pdst
Data page size distrubution: 0
Loading data page size distribution from /home/bsc/bsc018186/scratch/itp_asplos25_AE/dump/srv41_ap.pdst
cpu0_L2C IP-based stride prefetcher
cpu0_L1D next line prefetcher
cpu0_STLB using iTP with max lru@8
cpu0_STLB using iTP with instr@0 and data@2
Init sat counter with 3 bits (max:50).
cpu0_L1I next line prefetcher
Off-chip DRAM Size: 4 GiB Channels: 1 Width: 64-bit Data Rate: 3200 MT/s
Heartbeat CPU 0 instructions: 10000002 cycles: 2500163 heartbeat IPC: 3.99975 cumulative IPC: 3.99975 (Simulation time: 0 hr 0 min 37 sec) 
Heartbeat CPU 0 instructions: 20000003 cycles: 5000194 heartbeat IPC: 3.99996 cumulative IPC: 3.99985 (Simulation time: 0 hr 1 min 16 sec) 
Heartbeat CPU 0 instructions: 30000003 cycles: 7500237 heartbeat IPC: 3.99994 cumulative IPC: 3.99988 (Simulation time: 0 hr 1 min 55 sec) 
Heartbeat CPU 0 instructions: 40000003 cycles: 10000257 heartbeat IPC: 3.99997 cumulative IPC: 3.9999 (Simulation time: 0 hr 2 min 35 sec) 
Heartbeat CPU 0 instructions: 50000001 cycles: 12500257 heartbeat IPC: 4 cumulative IPC: 3.99992 (Simulation time: 0 hr 3 min 15 sec) 
Warmup finished CPU 0 instructions: 50000001 cycles: 12500258 cumulative IPC: 3.99992 (Simulation time: 0 hr 3 min 15 sec) 

Warmup complete CPU 0 instructions: 50000001 cycles: 12500258 (Simulation time: 0 hr 3 min 15 sec) 

Heartbeat CPU 0 instructions: 60000004 cycles: 32674810 heartbeat IPC: 0.495675 cumulative IPC: 0.495675 (Simulation time: 0 hr 4 min 26 sec) 
Heartbeat CPU 0 instructions: 70000003 cycles: 52259895 heartbeat IPC: 0.510593 cumulative IPC: 0.503023 (Simulation time: 0 hr 5 min 36 sec) 
Heartbeat CPU 0 instructions: 80000000 cycles: 72578001 heartbeat IPC: 0.492172 cumulative IPC: 0.499353 (Simulation time: 0 hr 6 min 48 sec) 
Heartbeat CPU 0 instructions: 90000003 cycles: 94167339 heartbeat IPC: 0.463192 cumulative IPC: 0.489794 (Simulation time: 0 hr 8 min 3 sec) 
Heartbeat CPU 0 instructions: 100000004 cycles: 114079594 heartbeat IPC: 0.502204 cumulative IPC: 0.492227 (Simulation time: 0 hr 9 min 16 sec) 
*** Reached end of trace: /gpfs/projects/bsc18/MN4/bsc18/romol/ChampSim/traces/qualcomm_srv/srv41_ap.champsimtrace.xz
Heartbeat CPU 0 instructions: 110000003 cycles: 134601783 heartbeat IPC: 0.487278 cumulative IPC: 0.491395 (Simulation time: 0 hr 10 min 29 sec) 
Heartbeat CPU 0 instructions: 120000001 cycles: 155312021 heartbeat IPC: 0.482853 cumulative IPC: 0.490156 (Simulation time: 0 hr 11 min 42 sec) 
Heartbeat CPU 0 instructions: 130000002 cycles: 175313210 heartbeat IPC: 0.499971 cumulative IPC: 0.491362 (Simulation time: 0 hr 12 min 53 sec) 
Heartbeat CPU 0 instructions: 140000001 cycles: 195670377 heartbeat IPC: 0.491228 cumulative IPC: 0.491347 (Simulation time: 0 hr 14 min 5 sec) 
Heartbeat CPU 0 instructions: 150000002 cycles: 216008684 heartbeat IPC: 0.491684 cumulative IPC: 0.491381 (Simulation time: 0 hr 15 min 15 sec) 
Simulation finished CPU 0 instructions: 100000001 cycles: 203508427 cumulative IPC: 0.491381 (Simulation time: 0 hr 15 min 15 sec) 

Simulation complete CPU 0 instructions: 100000001 cycles: 203508427 (Simulation time: 0 hr 15 min 15 sec) 


ChampSim completed all CPUs

Saving instructions large page distribution to /home/bsc/bsc018186/scratch/itp_asplos25_AE/dump/srv41_ap.pdst...
Saving data large page distribution to /home/bsc/bsc018186/scratch/itp_asplos25_AE/dump/srv41_ap.pdst...
=== Simulation ===
CPU 0 runs /gpfs/projects/bsc18/MN4/bsc18/romol/ChampSim/traces/qualcomm_srv/srv41_ap.champsimtrace.xz

Region of Interest Statistics

CPU 0 cumulative IPC: 0.491381 instructions: 100000001 cycles: 203508427
CPU 0 Branch Prediction Accuracy: 80.3925% MPKI: 35.4392 Average ROB Occupancy at Mispredict: 10.8199
Branch type MPKI
BRANCH_DIRECT_JUMP: 1.31902
BRANCH_INDIRECT: 17.7313
BRANCH_CONDITIONAL: 11.5202
BRANCH_DIRECT_CALL: 2.49591
BRANCH_INDIRECT_CALL: 0.6704
BRANCH_RETURN: 1.70236

Instructions large pages: 0
Instructions small pages: 5905
Large page distribution for instructions: 0%

Data large pages: 0
Data small pages: 4859
Large page distribution for data: 0%

cpu0_L1I TOTAL       ACCESS:   35849402  HIT:   27944021  MISS:    7905381  iACCESS:   35849402  iHIT:   27944021  iMISS:    7905381  dACCESS:          0  dHIT:          0  dMISS:          0  itACCESS:          0  itHIT:          0  itMISS:          0  dtACCESS:          0  dtHIT:          0  dtMISS:          0
cpu0_L1I LOAD         ACCESS:   10458176  HIT:    8279249  MISS:    2178927  iACCESS:   10458176  iHIT:    8279249  iMISS:    2178927  dACCESS:          0  dHIT:          0  dMISS:          0  itACCESS:          0  itHIT:          0  itMISS:          0  dtACCESS:          0  dtHIT:          0  dtMISS:          0
cpu0_L1I RFO          ACCESS:          0  HIT:          0  MISS:          0  iACCESS:          0  iHIT:          0  iMISS:          0  dACCESS:          0  dHIT:          0  dMISS:          0  itACCESS:          0  itHIT:          0  itMISS:          0  dtACCESS:          0  dtHIT:          0  dtMISS:          0
cpu0_L1I PREFETCH     ACCESS:   25391226  HIT:   19664772  MISS:    5726454  iACCESS:   25391226  iHIT:   19664772  iMISS:    5726454  dACCESS:          0  dHIT:          0  dMISS:          0  itACCESS:          0  itHIT:          0  itMISS:          0  dtACCESS:          0  dtHIT:          0  dtMISS:          0
cpu0_L1I WRITE        ACCESS:          0  HIT:          0  MISS:          0  iACCESS:          0  iHIT:          0  iMISS:          0  dACCESS:          0  dHIT:          0  dMISS:          0  itACCESS:          0  itHIT:          0  itMISS:          0  dtACCESS:          0  dtHIT:          0  dtMISS:          0
cpu0_L1I TRANSLATION  ACCESS:          0  HIT:          0  MISS:          0  iACCESS:          0  iHIT:          0  iMISS:          0  dACCESS:          0  dHIT:          0  dMISS:          0  itACCESS:          0  itHIT:          0  itMISS:          0  dtACCESS:          0  dtHIT:          0  dtMISS:          0
cpu0_L1I PREFETCH  REQUESTED:   27929135  ISSUED:   27929135  CROSSED:          0  USEFUL:    1985907  USELESS:     652686
cpu0_L1I AVERAGE iMISS LATENCY: 19.6641 cycles
cpu0_L1I AVERAGE dMISS LATENCY: 0 cycles
cpu0_L1I AVERAGE itMISS LATENCY: 0 cycles
cpu0_L1I AVERAGE dtMISS LATENCY: 0 cycles
cpu0_L1I PAGE CROSSINGS (TLB HIT):         0 
cpu0_L1I PAGE CROSSINGS (TLB MISS):         0 
cpu0_L1I AVERAGE MISS LATENCY: 19.6641 cycles
cpu0_ITLB TOTAL       ACCESS:   30116137  HIT:   28170958  MISS:    1945179  iACCESS:   30116137  iHIT:   28170958  iMISS:    1945179  dACCESS:          0  dHIT:          0  dMISS:          0  itACCESS:          0  itHIT:          0  itMISS:          0  dtACCESS:          0  dtHIT:          0  dtMISS:          0
cpu0_ITLB LOAD         ACCESS:   30116137  HIT:   28170958  MISS:    1945179  iACCESS:   30116137  iHIT:   28170958  iMISS:    1945179  dACCESS:          0  dHIT:          0  dMISS:          0  itACCESS:          0  itHIT:          0  itMISS:          0  dtACCESS:          0  dtHIT:          0  dtMISS:          0
cpu0_ITLB RFO          ACCESS:          0  HIT:          0  MISS:          0  iACCESS:          0  iHIT:          0  iMISS:          0  dACCESS:          0  dHIT:          0  dMISS:          0  itACCESS:          0  itHIT:          0  itMISS:          0  dtACCESS:          0  dtHIT:          0  dtMISS:          0
cpu0_ITLB PREFETCH     ACCESS:          0  HIT:          0  MISS:          0  iACCESS:          0  iHIT:          0  iMISS:          0  dACCESS:          0  dHIT:          0  dMISS:          0  itACCESS:          0  itHIT:          0  itMISS:          0  dtACCESS:          0  dtHIT:          0  dtMISS:          0
cpu0_ITLB WRITE        ACCESS:          0  HIT:          0  MISS:          0  iACCESS:          0  iHIT:          0  iMISS:          0  dACCESS:          0  dHIT:          0  dMISS:          0  itACCESS:          0  itHIT:          0  itMISS:          0  dtACCESS:          0  dtHIT:          0  dtMISS:          0
cpu0_ITLB TRANSLATION  ACCESS:          0  HIT:          0  MISS:          0  iACCESS:          0  iHIT:          0  iMISS:          0  dACCESS:          0  dHIT:          0  dMISS:          0  itACCESS:          0  itHIT:          0  itMISS:          0  dtACCESS:          0  dtHIT:          0  dtMISS:          0
cpu0_ITLB PREFETCH  REQUESTED:          0  ISSUED:          0  CROSSED:          0  USEFUL:     326902  USELESS:      66182
cpu0_ITLB AVERAGE iMISS LATENCY: 4.1218 cycles
cpu0_ITLB AVERAGE dMISS LATENCY: 0 cycles
cpu0_ITLB AVERAGE itMISS LATENCY: 0 cycles
cpu0_ITLB AVERAGE dtMISS LATENCY: 0 cycles
cpu0_ITLB PAGE CROSSINGS (TLB HIT):         0 
cpu0_ITLB PAGE CROSSINGS (TLB MISS):         0 
cpu0_ITLB AVERAGE MISS LATENCY: 4.1218 cycles
cpu0_DTLB TOTAL       ACCESS:   27898821  HIT:   25902216  MISS:    1996605  iACCESS:          0  iHIT:          0  iMISS:          0  dACCESS:   27898821  dHIT:   25902216  dMISS:    1996605  itACCESS:          0  itHIT:          0  itMISS:          0  dtACCESS:          0  dtHIT:          0  dtMISS:          0
cpu0_DTLB LOAD         ACCESS:   27898821  HIT:   25902216  MISS:    1996605  iACCESS:          0  iHIT:          0  iMISS:          0  dACCESS:   27898821  dHIT:   25902216  dMISS:    1996605  itACCESS:          0  itHIT:          0  itMISS:          0  dtACCESS:          0  dtHIT:          0  dtMISS:          0
cpu0_DTLB RFO          ACCESS:          0  HIT:          0  MISS:          0  iACCESS:          0  iHIT:          0  iMISS:          0  dACCESS:          0  dHIT:          0  dMISS:          0  itACCESS:          0  itHIT:          0  itMISS:          0  dtACCESS:          0  dtHIT:          0  dtMISS:          0
cpu0_DTLB PREFETCH     ACCESS:          0  HIT:          0  MISS:          0  iACCESS:          0  iHIT:          0  iMISS:          0  dACCESS:          0  dHIT:          0  dMISS:          0  itACCESS:          0  itHIT:          0  itMISS:          0  dtACCESS:          0  dtHIT:          0  dtMISS:          0
cpu0_DTLB WRITE        ACCESS:          0  HIT:          0  MISS:          0  iACCESS:          0  iHIT:          0  iMISS:          0  dACCESS:          0  dHIT:          0  dMISS:          0  itACCESS:          0  itHIT:          0  itMISS:          0  dtACCESS:          0  dtHIT:          0  dtMISS:          0
cpu0_DTLB TRANSLATION  ACCESS:          0  HIT:          0  MISS:          0  iACCESS:          0  iHIT:          0  iMISS:          0  dACCESS:          0  dHIT:          0  dMISS:          0  itACCESS:          0  itHIT:          0  itMISS:          0  dtACCESS:          0  dtHIT:          0  dtMISS:          0
cpu0_DTLB PREFETCH  REQUESTED:          0  ISSUED:          0  CROSSED:          0  USEFUL:          0  USELESS:          0
cpu0_DTLB AVERAGE iMISS LATENCY: 0 cycles
cpu0_DTLB AVERAGE dMISS LATENCY: 22.9588 cycles
cpu0_DTLB AVERAGE itMISS LATENCY: 0 cycles
cpu0_DTLB AVERAGE dtMISS LATENCY: 0 cycles
cpu0_DTLB PAGE CROSSINGS (TLB HIT):         0 
cpu0_DTLB PAGE CROSSINGS (TLB MISS):         0 
cpu0_DTLB AVERAGE MISS LATENCY: 22.9588 cycles
cpu0_STLB TOTAL       ACCESS:    1626534  HIT:    1415204  MISS:     211330  iACCESS:     393091  iHIT:     364538  iMISS:      28553  dACCESS:    1233443  dHIT:    1050666  dMISS:     182777  itACCESS:          0  itHIT:          0  itMISS:          0  dtACCESS:          0  dtHIT:          0  dtMISS:          0
cpu0_STLB LOAD         ACCESS:    1626534  HIT:    1415204  MISS:     211330  iACCESS:     393091  iHIT:     364538  iMISS:      28553  dACCESS:    1233443  dHIT:    1050666  dMISS:     182777  itACCESS:          0  itHIT:          0  itMISS:          0  dtACCESS:          0  dtHIT:          0  dtMISS:          0
cpu0_STLB RFO          ACCESS:          0  HIT:          0  MISS:          0  iACCESS:          0  iHIT:          0  iMISS:          0  dACCESS:          0  dHIT:          0  dMISS:          0  itACCESS:          0  itHIT:          0  itMISS:          0  dtACCESS:          0  dtHIT:          0  dtMISS:          0
cpu0_STLB PREFETCH     ACCESS:          0  HIT:          0  MISS:          0  iACCESS:          0  iHIT:          0  iMISS:          0  dACCESS:          0  dHIT:          0  dMISS:          0  itACCESS:          0  itHIT:          0  itMISS:          0  dtACCESS:          0  dtHIT:          0  dtMISS:          0
cpu0_STLB WRITE        ACCESS:          0  HIT:          0  MISS:          0  iACCESS:          0  iHIT:          0  iMISS:          0  dACCESS:          0  dHIT:          0  dMISS:          0  itACCESS:          0  itHIT:          0  itMISS:          0  dtACCESS:          0  dtHIT:          0  dtMISS:          0
cpu0_STLB TRANSLATION  ACCESS:          0  HIT:          0  MISS:          0  iACCESS:          0  iHIT:          0  iMISS:          0  dACCESS:          0  dHIT:          0  dMISS:          0  itACCESS:          0  itHIT:          0  itMISS:          0  dtACCESS:          0  dtHIT:          0  dtMISS:          0
cpu0_STLB PREFETCH  REQUESTED:          0  ISSUED:          0  CROSSED:          0  USEFUL:          0  USELESS:          0
cpu0_STLB AVERAGE iMISS LATENCY: 23.4192 cycles
cpu0_STLB AVERAGE dMISS LATENCY: 170.097 cycles
cpu0_STLB AVERAGE itMISS LATENCY: 0 cycles
cpu0_STLB AVERAGE dtMISS LATENCY: 0 cycles
cpu0_STLB PAGE CROSSINGS (TLB HIT):         0 
cpu0_STLB PAGE CROSSINGS (TLB MISS):         0 
cpu0_STLB AVERAGE MISS LATENCY: 193.516 cycles
cpu0_L1D TOTAL       ACCESS:   42666827  HIT:   38394817  MISS:    4272010  iACCESS:          0  iHIT:          0  iMISS:          0  dACCESS:   42377385  dHIT:   38377584  dMISS:    3999801  itACCESS:      32556  itHIT:       2781  itMISS:      29775  dtACCESS:     256886  dtHIT:      14452  dtMISS:     242434
cpu0_L1D LOAD         ACCESS:   19388494  HIT:   17558827  MISS:    1829667  iACCESS:          0  iHIT:          0  iMISS:          0  dACCESS:   19388494  dHIT:   17558827  dMISS:    1829667  itACCESS:          0  itHIT:          0  itMISS:          0  dtACCESS:          0  dtHIT:          0  dtMISS:          0
cpu0_L1D RFO          ACCESS:          0  HIT:          0  MISS:          0  iACCESS:          0  iHIT:          0  iMISS:          0  dACCESS:          0  dHIT:          0  dMISS:          0  itACCESS:          0  itHIT:          0  itMISS:          0  dtACCESS:          0  dtHIT:          0  dtMISS:          0
cpu0_L1D PREFETCH     ACCESS:   12847104  HIT:   11144477  MISS:    1702627  iACCESS:          0  iHIT:          0  iMISS:          0  dACCESS:   12847104  dHIT:   11144477  dMISS:    1702627  itACCESS:          0  itHIT:          0  itMISS:          0  dtACCESS:          0  dtHIT:          0  dtMISS:          0
cpu0_L1D WRITE        ACCESS:   10141787  HIT:    9674280  MISS:     467507  iACCESS:          0  iHIT:          0  iMISS:          0  dACCESS:   10141787  dHIT:    9674280  dMISS:     467507  itACCESS:          0  itHIT:          0  itMISS:          0  dtACCESS:          0  dtHIT:          0  dtMISS:          0
cpu0_L1D TRANSLATION  ACCESS:     289442  HIT:      17233  MISS:     272209  iACCESS:          0  iHIT:          0  iMISS:          0  dACCESS:          0  dHIT:          0  dMISS:          0  itACCESS:      32556  itHIT:       2781  itMISS:      29775  dtACCESS:     256886  dtHIT:      14452  dtMISS:     242434
cpu0_L1D PREFETCH  REQUESTED:   19388494  ISSUED:   17258254  CROSSED:          0  USEFUL:     309397  USELESS:     703399
cpu0_L1D AVERAGE iMISS LATENCY: 0 cycles
cpu0_L1D AVERAGE dMISS LATENCY: 39.4761 cycles
cpu0_L1D AVERAGE itMISS LATENCY: 1.09193 cycles
cpu0_L1D AVERAGE dtMISS LATENCY: 7.84526 cycles
cpu0_L1D PAGE CROSSINGS (TLB HIT):         0 
cpu0_L1D PAGE CROSSINGS (TLB MISS):         0 
cpu0_L1D AVERAGE MISS LATENCY: 48.4132 cycles
cpu0_L2C TOTAL       ACCESS:    7279667  HIT:    3737246  MISS:    3542421  iACCESS:    3378419  iHIT:    2052445  iMISS:    1325974  dACCESS:    3638760  dHIT:    1643007  dMISS:    1995753  itACCESS:      29775  itHIT:       4021  itMISS:      25754  dtACCESS:     232713  dtHIT:      37773  dtMISS:     194940
cpu0_L2C LOAD         ACCESS:    1732443  HIT:     933488  MISS:     798955  iACCESS:     778347  iHIT:     504460  iMISS:     273887  dACCESS:     954096  dHIT:     429028  dMISS:     525068  itACCESS:          0  itHIT:          0  itMISS:          0  dtACCESS:          0  dtHIT:          0  dtMISS:          0
cpu0_L2C RFO          ACCESS:     163247  HIT:      62904  MISS:     100343  iACCESS:          0  iHIT:          0  iMISS:          0  dACCESS:     163247  dHIT:      62904  dMISS:     100343  itACCESS:          0  itHIT:          0  itMISS:          0  dtACCESS:          0  dtHIT:          0  dtMISS:          0
cpu0_L2C PREFETCH     ACCESS:    4847329  HIT:    2425951  MISS:    2421378  iACCESS:    2600072  iHIT:    1547985  iMISS:    1052087  dACCESS:    2247257  dHIT:     877966  dMISS:    1369291  itACCESS:          0  itHIT:          0  itMISS:          0  dtACCESS:          0  dtHIT:          0  dtMISS:          0
cpu0_L2C WRITE        ACCESS:     274160  HIT:     273109  MISS:       1051  iACCESS:          0  iHIT:          0  iMISS:          0  dACCESS:     274160  dHIT:     273109  dMISS:       1051  itACCESS:          0  itHIT:          0  itMISS:          0  dtACCESS:          0  dtHIT:          0  dtMISS:          0
cpu0_L2C TRANSLATION  ACCESS:     262488  HIT:      41794  MISS:     220694  iACCESS:          0  iHIT:          0  iMISS:          0  dACCESS:          0  dHIT:          0  dMISS:          0  itACCESS:      29775  itHIT:       4021  itMISS:      25754  dtACCESS:     232713  dtHIT:      37773  dtMISS:     194940
cpu0_L2C PREFETCH  REQUESTED:    1500016  ISSUED:    1499756  CROSSED:          0  USEFUL:     369197  USELESS:     291866
cpu0_L2C AVERAGE iMISS LATENCY: 35.5795 cycles
cpu0_L2C AVERAGE dMISS LATENCY: 61.4694 cycles
cpu0_L2C AVERAGE itMISS LATENCY: 1.23362 cycles
cpu0_L2C AVERAGE dtMISS LATENCY: 8.8108 cycles
cpu0_L2C PAGE CROSSINGS (TLB HIT):         0 
cpu0_L2C PAGE CROSSINGS (TLB MISS):         0 
cpu0_L2C AVERAGE MISS LATENCY: 107.094 cycles
LLC TOTAL       ACCESS:    3495631  HIT:    1544642  MISS:    1950989  iACCESS:    1246162  iHIT:     559640  iMISS:     686522  dACCESS:    2028775  dHIT:     932155  dMISS:    1096620  itACCESS:      25754  itHIT:       4026  itMISS:      21728  dtACCESS:     194940  dtHIT:      48821  dtMISS:     146119
LLC LOAD         ACCESS:     791373  HIT:     371326  MISS:     420047  iACCESS:     272704  iHIT:     125799  iMISS:     146905  dACCESS:     518669  dHIT:     245527  dMISS:     273142  itACCESS:          0  itHIT:          0  itMISS:          0  dtACCESS:          0  dtHIT:          0  dtMISS:          0
LLC RFO          ACCESS:     100321  HIT:      38635  MISS:      61686  iACCESS:          0  iHIT:          0  iMISS:          0  dACCESS:     100321  dHIT:      38635  dMISS:      61686  itACCESS:          0  itHIT:          0  itMISS:          0  dtACCESS:          0  dtHIT:          0  dtMISS:          0
LLC PREFETCH     ACCESS:    2237271  HIT:     944008  MISS:    1293263  iACCESS:     973458  iHIT:     433841  iMISS:     539617  dACCESS:    1263813  dHIT:     510167  dMISS:     753646  itACCESS:          0  itHIT:          0  itMISS:          0  dtACCESS:          0  dtHIT:          0  dtMISS:          0
LLC WRITE        ACCESS:     145972  HIT:     137826  MISS:       8146  iACCESS:          0  iHIT:          0  iMISS:          0  dACCESS:     145972  dHIT:     137826  dMISS:       8146  itACCESS:          0  itHIT:          0  itMISS:          0  dtACCESS:          0  dtHIT:          0  dtMISS:          0
LLC TRANSLATION  ACCESS:     220694  HIT:      52847  MISS:     167847  iACCESS:          0  iHIT:          0  iMISS:          0  dACCESS:          0  dHIT:          0  dMISS:          0  itACCESS:      25754  itHIT:       4026  itMISS:      21728  dtACCESS:     194940  dtHIT:      48821  dtMISS:     146119
LLC PREFETCH  REQUESTED:          0  ISSUED:          0  CROSSED:          0  USEFUL:          0  USELESS:          0
LLC AVERAGE iMISS LATENCY: 52.1093 cycles
LLC AVERAGE dMISS LATENCY: 93.7713 cycles
LLC AVERAGE itMISS LATENCY: 1.97895 cycles
LLC AVERAGE dtMISS LATENCY: 14.0326 cycles
LLC PAGE CROSSINGS (TLB HIT):         0 
LLC PAGE CROSSINGS (TLB MISS):         0 
LLC AVERAGE MISS LATENCY: 161.892 cycles

PageTableWalker TOTAL       ACCESS:     100046  
PageTableWalker AVERAGE LATENCY: 5.22627 cycles
PageTableWalker TOTAL LATENCY: 522867 cycles

DRAM Statistics
Channel 0
 RQ ROW_BUFFER_HIT:     538849
  ROW_BUFFER_MISS:    1391066
 AVG DBUS CONGESTED CYCLE:    3.63946
 WQ ROW_BUFFER_HIT:      37215
  ROW_BUFFER_MISS:      26824  FULL:          0

