last_page:0x200000000000000
VMEM_RES_CAP:0x100000
PAGE_SIZE:4096
LOG2_PAGE_SIZE:12
LOG2_PAGE_TABLE_SIZE:9
page_table_levels:5
WARNING: physical memory size is smaller than virtual memory size
FDiP enabled with aggresivity 16

*** ChampSim Multicore Out-of-Order Simulator ***

Warmup Instructions: 50000000
Simulation Instructions: 100000000
Number of CPUs: 1
Small page size: 4096
Large page size: 2097152

CPU 0 Bimodal branch predictor
Basic BTB sets: 1024 ways: 8 indirect buffer size: 4096 RAS size: 64
Instruction page size distrubution: 0
Loading instruction page size distribution from /home/bsc/bsc018186/scratch/itp_asplos25_AE/dump/srv442_ap.pdst
Data page size distrubution: 0
Loading data page size distribution from /home/bsc/bsc018186/scratch/itp_asplos25_AE/dump/srv442_ap.pdst
cpu0_L2C IP-based stride prefetcher
cpu0_L1D next line prefetcher
cpu0_STLB using iTP with max lru@8
cpu0_STLB using iTP with instr@0 and data@2
Init sat counter with 3 bits (max:50).
cpu0_L1I next line prefetcher
Off-chip DRAM Size: 4 GiB Channels: 1 Width: 64-bit Data Rate: 3200 MT/s
Heartbeat CPU 0 instructions: 10000000 cycles: 2500156 heartbeat IPC: 3.99976 cumulative IPC: 3.99976 (Simulation time: 0 hr 0 min 38 sec) 
Heartbeat CPU 0 instructions: 20000003 cycles: 5000192 heartbeat IPC: 3.99995 cumulative IPC: 3.99985 (Simulation time: 0 hr 1 min 18 sec) 
Heartbeat CPU 0 instructions: 30000003 cycles: 7500217 heartbeat IPC: 3.99997 cumulative IPC: 3.99989 (Simulation time: 0 hr 1 min 59 sec) 
Heartbeat CPU 0 instructions: 40000003 cycles: 10000277 heartbeat IPC: 3.99991 cumulative IPC: 3.99989 (Simulation time: 0 hr 2 min 39 sec) 
Heartbeat CPU 0 instructions: 50000002 cycles: 12500303 heartbeat IPC: 3.99996 cumulative IPC: 3.99991 (Simulation time: 0 hr 3 min 21 sec) 
Warmup finished CPU 0 instructions: 50000002 cycles: 12500304 cumulative IPC: 3.99991 (Simulation time: 0 hr 3 min 21 sec) 

Warmup complete CPU 0 instructions: 50000002 cycles: 12500304 (Simulation time: 0 hr 3 min 21 sec) 

Heartbeat CPU 0 instructions: 60000002 cycles: 33304006 heartbeat IPC: 0.480684 cumulative IPC: 0.480684 (Simulation time: 0 hr 4 min 32 sec) 
Heartbeat CPU 0 instructions: 70000004 cycles: 54286588 heartbeat IPC: 0.476586 cumulative IPC: 0.478627 (Simulation time: 0 hr 5 min 44 sec) 
Heartbeat CPU 0 instructions: 80000001 cycles: 74849944 heartbeat IPC: 0.486302 cumulative IPC: 0.481158 (Simulation time: 0 hr 6 min 55 sec) 
Heartbeat CPU 0 instructions: 90000000 cycles: 94794785 heartbeat IPC: 0.501383 cumulative IPC: 0.48606 (Simulation time: 0 hr 8 min 5 sec) 
Heartbeat CPU 0 instructions: 100000001 cycles: 114890756 heartbeat IPC: 0.497613 cumulative IPC: 0.488327 (Simulation time: 0 hr 9 min 15 sec) 
*** Reached end of trace: /gpfs/projects/bsc18/MN4/bsc18/romol/ChampSim/traces/qualcomm_srv/srv442_ap.champsimtrace.xz
Heartbeat CPU 0 instructions: 110000001 cycles: 135345402 heartbeat IPC: 0.488887 cumulative IPC: 0.48842 (Simulation time: 0 hr 10 min 26 sec) 
Heartbeat CPU 0 instructions: 120000004 cycles: 155835040 heartbeat IPC: 0.488052 cumulative IPC: 0.488368 (Simulation time: 0 hr 11 min 37 sec) 
Heartbeat CPU 0 instructions: 130000004 cycles: 176584083 heartbeat IPC: 0.48195 cumulative IPC: 0.487556 (Simulation time: 0 hr 12 min 48 sec) 
Heartbeat CPU 0 instructions: 140000000 cycles: 197998166 heartbeat IPC: 0.466983 cumulative IPC: 0.485181 (Simulation time: 0 hr 14 min 1 sec) 
Heartbeat CPU 0 instructions: 150000000 cycles: 217846353 heartbeat IPC: 0.503825 cumulative IPC: 0.486983 (Simulation time: 0 hr 15 min 11 sec) 
Simulation finished CPU 0 instructions: 100000000 cycles: 205346051 cumulative IPC: 0.486983 (Simulation time: 0 hr 15 min 11 sec) 

Simulation complete CPU 0 instructions: 100000000 cycles: 205346051 (Simulation time: 0 hr 15 min 11 sec) 


ChampSim completed all CPUs

Saving instructions large page distribution to /home/bsc/bsc018186/scratch/itp_asplos25_AE/dump/srv442_ap.pdst...
Saving data large page distribution to /home/bsc/bsc018186/scratch/itp_asplos25_AE/dump/srv442_ap.pdst...
=== Simulation ===
CPU 0 runs /gpfs/projects/bsc18/MN4/bsc18/romol/ChampSim/traces/qualcomm_srv/srv442_ap.champsimtrace.xz

Region of Interest Statistics

CPU 0 cumulative IPC: 0.486983 instructions: 100000000 cycles: 205346051
CPU 0 Branch Prediction Accuracy: 79.7214% MPKI: 36.634 Average ROB Occupancy at Mispredict: 10.7951
Branch type MPKI
BRANCH_DIRECT_JUMP: 1.39274
BRANCH_INDIRECT: 18.323
BRANCH_CONDITIONAL: 11.8127
BRANCH_DIRECT_CALL: 2.62396
BRANCH_INDIRECT_CALL: 0.679551
BRANCH_RETURN: 1.80207

Instructions large pages: 0
Instructions small pages: 1142
Large page distribution for instructions: 0%

Data large pages: 0
Data small pages: 5076
Large page distribution for data: 0%

cpu0_L1I TOTAL       ACCESS:   35977331  HIT:   27927700  MISS:    8049631  iACCESS:   35977331  iHIT:   27927700  iMISS:    8049631  dACCESS:          0  dHIT:          0  dMISS:          0  itACCESS:          0  itHIT:          0  itMISS:          0  dtACCESS:          0  dtHIT:          0  dtMISS:          0
cpu0_L1I LOAD         ACCESS:   10477978  HIT:    8271934  MISS:    2206044  iACCESS:   10477978  iHIT:    8271934  iMISS:    2206044  dACCESS:          0  dHIT:          0  dMISS:          0  itACCESS:          0  itHIT:          0  itMISS:          0  dtACCESS:          0  dtHIT:          0  dtMISS:          0
cpu0_L1I RFO          ACCESS:          0  HIT:          0  MISS:          0  iACCESS:          0  iHIT:          0  iMISS:          0  dACCESS:          0  dHIT:          0  dMISS:          0  itACCESS:          0  itHIT:          0  itMISS:          0  dtACCESS:          0  dtHIT:          0  dtMISS:          0
cpu0_L1I PREFETCH     ACCESS:   25499353  HIT:   19655766  MISS:    5843587  iACCESS:   25499353  iHIT:   19655766  iMISS:    5843587  dACCESS:          0  dHIT:          0  dMISS:          0  itACCESS:          0  itHIT:          0  itMISS:          0  dtACCESS:          0  dtHIT:          0  dtMISS:          0
cpu0_L1I WRITE        ACCESS:          0  HIT:          0  MISS:          0  iACCESS:          0  iHIT:          0  iMISS:          0  dACCESS:          0  dHIT:          0  dMISS:          0  itACCESS:          0  itHIT:          0  itMISS:          0  dtACCESS:          0  dtHIT:          0  dtMISS:          0
cpu0_L1I TRANSLATION  ACCESS:          0  HIT:          0  MISS:          0  iACCESS:          0  iHIT:          0  iMISS:          0  dACCESS:          0  dHIT:          0  dMISS:          0  itACCESS:          0  itHIT:          0  itMISS:          0  dtACCESS:          0  dtHIT:          0  dtMISS:          0
cpu0_L1I PREFETCH  REQUESTED:   28004416  ISSUED:   28004416  CROSSED:          0  USEFUL:    2037100  USELESS:     665971
cpu0_L1I AVERAGE iMISS LATENCY: 19.1133 cycles
cpu0_L1I AVERAGE dMISS LATENCY: 0 cycles
cpu0_L1I AVERAGE itMISS LATENCY: 0 cycles
cpu0_L1I AVERAGE dtMISS LATENCY: 0 cycles
cpu0_L1I PAGE CROSSINGS (TLB HIT):         0 
cpu0_L1I PAGE CROSSINGS (TLB MISS):         0 
cpu0_L1I AVERAGE MISS LATENCY: 19.1133 cycles
cpu0_ITLB TOTAL       ACCESS:   30296578  HIT:   28326854  MISS:    1969724  iACCESS:   30296578  iHIT:   28326854  iMISS:    1969724  dACCESS:          0  dHIT:          0  dMISS:          0  itACCESS:          0  itHIT:          0  itMISS:          0  dtACCESS:          0  dtHIT:          0  dtMISS:          0
cpu0_ITLB LOAD         ACCESS:   30296578  HIT:   28326854  MISS:    1969724  iACCESS:   30296578  iHIT:   28326854  iMISS:    1969724  dACCESS:          0  dHIT:          0  dMISS:          0  itACCESS:          0  itHIT:          0  itMISS:          0  dtACCESS:          0  dtHIT:          0  dtMISS:          0
cpu0_ITLB RFO          ACCESS:          0  HIT:          0  MISS:          0  iACCESS:          0  iHIT:          0  iMISS:          0  dACCESS:          0  dHIT:          0  dMISS:          0  itACCESS:          0  itHIT:          0  itMISS:          0  dtACCESS:          0  dtHIT:          0  dtMISS:          0
cpu0_ITLB PREFETCH     ACCESS:          0  HIT:          0  MISS:          0  iACCESS:          0  iHIT:          0  iMISS:          0  dACCESS:          0  dHIT:          0  dMISS:          0  itACCESS:          0  itHIT:          0  itMISS:          0  dtACCESS:          0  dtHIT:          0  dtMISS:          0
cpu0_ITLB WRITE        ACCESS:          0  HIT:          0  MISS:          0  iACCESS:          0  iHIT:          0  iMISS:          0  dACCESS:          0  dHIT:          0  dMISS:          0  itACCESS:          0  itHIT:          0  itMISS:          0  dtACCESS:          0  dtHIT:          0  dtMISS:          0
cpu0_ITLB TRANSLATION  ACCESS:          0  HIT:          0  MISS:          0  iACCESS:          0  iHIT:          0  iMISS:          0  dACCESS:          0  dHIT:          0  dMISS:          0  itACCESS:          0  itHIT:          0  itMISS:          0  dtACCESS:          0  dtHIT:          0  dtMISS:          0
cpu0_ITLB PREFETCH  REQUESTED:          0  ISSUED:          0  CROSSED:          0  USEFUL:     333631  USELESS:      67169
cpu0_ITLB AVERAGE iMISS LATENCY: 4.14891 cycles
cpu0_ITLB AVERAGE dMISS LATENCY: 0 cycles
cpu0_ITLB AVERAGE itMISS LATENCY: 0 cycles
cpu0_ITLB AVERAGE dtMISS LATENCY: 0 cycles
cpu0_ITLB PAGE CROSSINGS (TLB HIT):         0 
cpu0_ITLB PAGE CROSSINGS (TLB MISS):         0 
cpu0_ITLB AVERAGE MISS LATENCY: 4.14891 cycles
cpu0_DTLB TOTAL       ACCESS:   27956067  HIT:   25967436  MISS:    1988631  iACCESS:          0  iHIT:          0  iMISS:          0  dACCESS:   27956067  dHIT:   25967436  dMISS:    1988631  itACCESS:          0  itHIT:          0  itMISS:          0  dtACCESS:          0  dtHIT:          0  dtMISS:          0
cpu0_DTLB LOAD         ACCESS:   27956067  HIT:   25967436  MISS:    1988631  iACCESS:          0  iHIT:          0  iMISS:          0  dACCESS:   27956067  dHIT:   25967436  dMISS:    1988631  itACCESS:          0  itHIT:          0  itMISS:          0  dtACCESS:          0  dtHIT:          0  dtMISS:          0
cpu0_DTLB RFO          ACCESS:          0  HIT:          0  MISS:          0  iACCESS:          0  iHIT:          0  iMISS:          0  dACCESS:          0  dHIT:          0  dMISS:          0  itACCESS:          0  itHIT:          0  itMISS:          0  dtACCESS:          0  dtHIT:          0  dtMISS:          0
cpu0_DTLB PREFETCH     ACCESS:          0  HIT:          0  MISS:          0  iACCESS:          0  iHIT:          0  iMISS:          0  dACCESS:          0  dHIT:          0  dMISS:          0  itACCESS:          0  itHIT:          0  itMISS:          0  dtACCESS:          0  dtHIT:          0  dtMISS:          0
cpu0_DTLB WRITE        ACCESS:          0  HIT:          0  MISS:          0  iACCESS:          0  iHIT:          0  iMISS:          0  dACCESS:          0  dHIT:          0  dMISS:          0  itACCESS:          0  itHIT:          0  itMISS:          0  dtACCESS:          0  dtHIT:          0  dtMISS:          0
cpu0_DTLB TRANSLATION  ACCESS:          0  HIT:          0  MISS:          0  iACCESS:          0  iHIT:          0  iMISS:          0  dACCESS:          0  dHIT:          0  dMISS:          0  itACCESS:          0  itHIT:          0  itMISS:          0  dtACCESS:          0  dtHIT:          0  dtMISS:          0
cpu0_DTLB PREFETCH  REQUESTED:          0  ISSUED:          0  CROSSED:          0  USEFUL:          0  USELESS:          0
cpu0_DTLB AVERAGE iMISS LATENCY: 0 cycles
cpu0_DTLB AVERAGE dMISS LATENCY: 23.0057 cycles
cpu0_DTLB AVERAGE itMISS LATENCY: 0 cycles
cpu0_DTLB AVERAGE dtMISS LATENCY: 0 cycles
cpu0_DTLB PAGE CROSSINGS (TLB HIT):         0 
cpu0_DTLB PAGE CROSSINGS (TLB MISS):         0 
cpu0_DTLB AVERAGE MISS LATENCY: 23.0057 cycles
cpu0_STLB TOTAL       ACCESS:    1635376  HIT:    1421242  MISS:     214134  iACCESS:     400804  iHIT:     370561  iMISS:      30243  dACCESS:    1234572  dHIT:    1050681  dMISS:     183891  itACCESS:          0  itHIT:          0  itMISS:          0  dtACCESS:          0  dtHIT:          0  dtMISS:          0
cpu0_STLB LOAD         ACCESS:    1635376  HIT:    1421242  MISS:     214134  iACCESS:     400804  iHIT:     370561  iMISS:      30243  dACCESS:    1234572  dHIT:    1050681  dMISS:     183891  itACCESS:          0  itHIT:          0  itMISS:          0  dtACCESS:          0  dtHIT:          0  dtMISS:          0
cpu0_STLB RFO          ACCESS:          0  HIT:          0  MISS:          0  iACCESS:          0  iHIT:          0  iMISS:          0  dACCESS:          0  dHIT:          0  dMISS:          0  itACCESS:          0  itHIT:          0  itMISS:          0  dtACCESS:          0  dtHIT:          0  dtMISS:          0
cpu0_STLB PREFETCH     ACCESS:          0  HIT:          0  MISS:          0  iACCESS:          0  iHIT:          0  iMISS:          0  dACCESS:          0  dHIT:          0  dMISS:          0  itACCESS:          0  itHIT:          0  itMISS:          0  dtACCESS:          0  dtHIT:          0  dtMISS:          0
cpu0_STLB WRITE        ACCESS:          0  HIT:          0  MISS:          0  iACCESS:          0  iHIT:          0  iMISS:          0  dACCESS:          0  dHIT:          0  dMISS:          0  itACCESS:          0  itHIT:          0  itMISS:          0  dtACCESS:          0  dtHIT:          0  dtMISS:          0
cpu0_STLB TRANSLATION  ACCESS:          0  HIT:          0  MISS:          0  iACCESS:          0  iHIT:          0  iMISS:          0  dACCESS:          0  dHIT:          0  dMISS:          0  itACCESS:          0  itHIT:          0  itMISS:          0  dtACCESS:          0  dtHIT:          0  dtMISS:          0
cpu0_STLB PREFETCH  REQUESTED:          0  ISSUED:          0  CROSSED:          0  USEFUL:          0  USELESS:          0
cpu0_STLB AVERAGE iMISS LATENCY: 23.5455 cycles
cpu0_STLB AVERAGE dMISS LATENCY: 167.421 cycles
cpu0_STLB AVERAGE itMISS LATENCY: 0 cycles
cpu0_STLB AVERAGE dtMISS LATENCY: 0 cycles
cpu0_STLB PAGE CROSSINGS (TLB HIT):         0 
cpu0_STLB PAGE CROSSINGS (TLB MISS):         0 
cpu0_STLB AVERAGE MISS LATENCY: 190.966 cycles
cpu0_L1D TOTAL       ACCESS:   42824394  HIT:   38497870  MISS:    4326524  iACCESS:          0  iHIT:          0  iMISS:          0  dACCESS:   42538095  dHIT:   38480222  dMISS:    4057873  itACCESS:      34810  itHIT:       3171  itMISS:      31639  dtACCESS:     251489  dtHIT:      14477  dtMISS:     237012
cpu0_L1D LOAD         ACCESS:   19443212  HIT:   17584526  MISS:    1858686  iACCESS:          0  iHIT:          0  iMISS:          0  dACCESS:   19443212  dHIT:   17584526  dMISS:    1858686  itACCESS:          0  itHIT:          0  itMISS:          0  dtACCESS:          0  dtHIT:          0  dtMISS:          0
cpu0_L1D RFO          ACCESS:          0  HIT:          0  MISS:          0  iACCESS:          0  iHIT:          0  iMISS:          0  dACCESS:          0  dHIT:          0  dMISS:          0  itACCESS:          0  itHIT:          0  itMISS:          0  dtACCESS:          0  dtHIT:          0  dtMISS:          0
cpu0_L1D PREFETCH     ACCESS:   12934438  HIT:   11207198  MISS:    1727240  iACCESS:          0  iHIT:          0  iMISS:          0  dACCESS:   12934438  dHIT:   11207198  dMISS:    1727240  itACCESS:          0  itHIT:          0  itMISS:          0  dtACCESS:          0  dtHIT:          0  dtMISS:          0
cpu0_L1D WRITE        ACCESS:   10160445  HIT:    9688498  MISS:     471947  iACCESS:          0  iHIT:          0  iMISS:          0  dACCESS:   10160445  dHIT:    9688498  dMISS:     471947  itACCESS:          0  itHIT:          0  itMISS:          0  dtACCESS:          0  dtHIT:          0  dtMISS:          0
cpu0_L1D TRANSLATION  ACCESS:     286299  HIT:      17648  MISS:     268651  iACCESS:          0  iHIT:          0  iMISS:          0  dACCESS:          0  dHIT:          0  dMISS:          0  itACCESS:      34810  itHIT:       3171  itMISS:      31639  dtACCESS:     251489  dtHIT:      14477  dtMISS:     237012
cpu0_L1D PREFETCH  REQUESTED:   19443212  ISSUED:   17326109  CROSSED:          0  USEFUL:     311808  USELESS:     716443
cpu0_L1D AVERAGE iMISS LATENCY: 0 cycles
cpu0_L1D AVERAGE dMISS LATENCY: 39.3354 cycles
cpu0_L1D AVERAGE itMISS LATENCY: 1.09231 cycles
cpu0_L1D AVERAGE dtMISS LATENCY: 7.70705 cycles
cpu0_L1D PAGE CROSSINGS (TLB HIT):         0 
cpu0_L1D PAGE CROSSINGS (TLB MISS):         0 
cpu0_L1D AVERAGE MISS LATENCY: 48.1348 cycles
cpu0_L2C TOTAL       ACCESS:    7444008  HIT:    3713315  MISS:    3730693  iACCESS:    3451853  iHIT:    2053827  iMISS:    1398026  dACCESS:    3727806  dHIT:    1617797  dMISS:    2110009  itACCESS:      31021  itHIT:       4657  itMISS:      26364  dtACCESS:     233328  dtHIT:      37034  dtMISS:     196294
cpu0_L2C LOAD         ACCESS:    1755411  HIT:     909871  MISS:     845540  iACCESS:     787213  iHIT:     498399  iMISS:     288814  dACCESS:     968198  dHIT:     411472  dMISS:     556726  itACCESS:          0  itHIT:          0  itMISS:          0  dtACCESS:          0  dtHIT:          0  dtMISS:          0
cpu0_L2C RFO          ACCESS:     163223  HIT:      60815  MISS:     102408  iACCESS:          0  iHIT:          0  iMISS:          0  dACCESS:     163223  dHIT:      60815  dMISS:     102408  itACCESS:          0  itHIT:          0  itMISS:          0  dtACCESS:          0  dtHIT:          0  dtMISS:          0
cpu0_L2C PREFETCH     ACCESS:    4984195  HIT:    2425277  MISS:    2558918  iACCESS:    2664640  iHIT:    1555428  iMISS:    1109212  dACCESS:    2319555  dHIT:     869849  dMISS:    1449706  itACCESS:          0  itHIT:          0  itMISS:          0  dtACCESS:          0  dtHIT:          0  dtMISS:          0
cpu0_L2C WRITE        ACCESS:     276830  HIT:     275661  MISS:       1169  iACCESS:          0  iHIT:          0  iMISS:          0  dACCESS:     276830  dHIT:     275661  dMISS:       1169  itACCESS:          0  itHIT:          0  itMISS:          0  dtACCESS:          0  dtHIT:          0  dtMISS:          0
cpu0_L2C TRANSLATION  ACCESS:     264349  HIT:      41691  MISS:     222658  iACCESS:          0  iHIT:          0  iMISS:          0  dACCESS:          0  dHIT:          0  dMISS:          0  itACCESS:      31021  itHIT:       4657  itMISS:      26364  dtACCESS:     233328  dtHIT:      37034  dtMISS:     196294
cpu0_L2C PREFETCH  REQUESTED:    1563666  ISSUED:    1563540  CROSSED:          0  USEFUL:     390659  USELESS:     311384
cpu0_L2C AVERAGE iMISS LATENCY: 33.0575 cycles
cpu0_L2C AVERAGE dMISS LATENCY: 58.4158 cycles
cpu0_L2C AVERAGE itMISS LATENCY: 1.18457 cycles
cpu0_L2C AVERAGE dtMISS LATENCY: 8.3186 cycles
cpu0_L2C PAGE CROSSINGS (TLB HIT):         0 
cpu0_L2C PAGE CROSSINGS (TLB MISS):         0 
cpu0_L2C AVERAGE MISS LATENCY: 100.977 cycles
LLC TOTAL       ACCESS:    3691645  HIT:    1762594  MISS:    1929051  iACCESS:    1316999  iHIT:     656440  iMISS:     660559  dACCESS:    2151988  dHIT:    1050367  dMISS:    1101621  itACCESS:      26364  itHIT:       4543  itMISS:      21821  dtACCESS:     196294  dtHIT:      51244  dtMISS:     145050
LLC LOAD         ACCESS:     839324  HIT:     419485  MISS:     419839  iACCESS:     287569  iHIT:     148201  iMISS:     139368  dACCESS:     551755  dHIT:     271284  dMISS:     280471  itACCESS:          0  itHIT:          0  itMISS:          0  dtACCESS:          0  dtHIT:          0  dtMISS:          0
LLC RFO          ACCESS:     102402  HIT:      41299  MISS:      61103  iACCESS:          0  iHIT:          0  iMISS:          0  dACCESS:     102402  dHIT:      41299  dMISS:      61103  itACCESS:          0  itHIT:          0  itMISS:          0  dtACCESS:          0  dtHIT:          0  dtMISS:          0
LLC PREFETCH     ACCESS:    2373642  HIT:    1101357  MISS:    1272285  iACCESS:    1029430  iHIT:     508239  iMISS:     521191  dACCESS:    1344212  dHIT:     593118  dMISS:     751094  itACCESS:          0  itHIT:          0  itMISS:          0  dtACCESS:          0  dtHIT:          0  dtMISS:          0
LLC WRITE        ACCESS:     153619  HIT:     144666  MISS:       8953  iACCESS:          0  iHIT:          0  iMISS:          0  dACCESS:     153619  dHIT:     144666  dMISS:       8953  itACCESS:          0  itHIT:          0  itMISS:          0  dtACCESS:          0  dtHIT:          0  dtMISS:          0
LLC TRANSLATION  ACCESS:     222658  HIT:      55787  MISS:     166871  iACCESS:          0  iHIT:          0  iMISS:          0  dACCESS:          0  dHIT:          0  dMISS:          0  itACCESS:      26364  itHIT:       4543  itMISS:      21821  dtACCESS:     196294  dtHIT:      51244  dtMISS:     145050
LLC PREFETCH  REQUESTED:          0  ISSUED:          0  CROSSED:          0  USEFUL:          0  USELESS:          0
LLC AVERAGE iMISS LATENCY: 50.5947 cycles
LLC AVERAGE dMISS LATENCY: 93.6561 cycles
LLC AVERAGE itMISS LATENCY: 2.02102 cycles
LLC AVERAGE dtMISS LATENCY: 14.0872 cycles
LLC PAGE CROSSINGS (TLB HIT):         0 
LLC PAGE CROSSINGS (TLB MISS):         0 
LLC AVERAGE MISS LATENCY: 160.359 cycles

PageTableWalker TOTAL       ACCESS:     100419  
PageTableWalker AVERAGE LATENCY: 5.26774 cycles
PageTableWalker TOTAL LATENCY: 528981 cycles

DRAM Statistics
Channel 0
 RQ ROW_BUFFER_HIT:     529966
  ROW_BUFFER_MISS:    1371794
 AVG DBUS CONGESTED CYCLE:    3.63811
 WQ ROW_BUFFER_HIT:      37408
  ROW_BUFFER_MISS:      26710  FULL:          0

