last_page:0x200000000000000
VMEM_RES_CAP:0x100000
PAGE_SIZE:4096
LOG2_PAGE_SIZE:12
LOG2_PAGE_TABLE_SIZE:9
page_table_levels:5
WARNING: physical memory size is smaller than virtual memory size
FDiP enabled with aggresivity 16

*** ChampSim Multicore Out-of-Order Simulator ***

Warmup Instructions: 50000000
Simulation Instructions: 100000000
Number of CPUs: 1
Small page size: 4096
Large page size: 2097152

CPU 0 Bimodal branch predictor
Basic BTB sets: 1024 ways: 8 indirect buffer size: 4096 RAS size: 64
Instruction page size distrubution: 0
Loading instruction page size distribution from /home/bsc/bsc018186/scratch/itp_asplos25_AE/dump/srv483_ap.pdst
Data page size distrubution: 0
Loading data page size distribution from /home/bsc/bsc018186/scratch/itp_asplos25_AE/dump/srv483_ap.pdst
cpu0_L2C IP-based stride prefetcher
cpu0_L2C is using xPTP/LRU
	TLB_LOWER_STRESS_THRESHOLD:1
	TLB_UPPER_STRESS_THRESHOLD:9
	MIN_EVICTION_POSITION:4
cpu0_L1D next line prefetcher
cpu0_STLB using iTP with max lru@8
cpu0_STLB using iTP with instr@0 and data@2
Init sat counter with 3 bits (max:50).
cpu0_L1I next line prefetcher
Off-chip DRAM Size: 4 GiB Channels: 1 Width: 64-bit Data Rate: 3200 MT/s
Heartbeat CPU 0 instructions: 10000002 cycles: 2500082 heartbeat IPC: 3.99987 cumulative IPC: 3.99987 (Simulation time: 0 hr 0 min 39 sec) 
Heartbeat CPU 0 instructions: 20000000 cycles: 5000082 heartbeat IPC: 4 cumulative IPC: 3.99994 (Simulation time: 0 hr 1 min 19 sec) 
Heartbeat CPU 0 instructions: 30000000 cycles: 7500083 heartbeat IPC: 4 cumulative IPC: 3.99996 (Simulation time: 0 hr 2 min 1 sec) 
Heartbeat CPU 0 instructions: 40000000 cycles: 10000097 heartbeat IPC: 3.99998 cumulative IPC: 3.99997 (Simulation time: 0 hr 2 min 40 sec) 
Heartbeat CPU 0 instructions: 50000001 cycles: 12500122 heartbeat IPC: 3.99997 cumulative IPC: 3.99997 (Simulation time: 0 hr 3 min 21 sec) 
Warmup finished CPU 0 instructions: 50000001 cycles: 12500123 cumulative IPC: 3.99997 (Simulation time: 0 hr 3 min 21 sec) 

Warmup complete CPU 0 instructions: 50000001 cycles: 12500123 (Simulation time: 0 hr 3 min 21 sec) 

Heartbeat CPU 0 instructions: 60000003 cycles: 25922254 heartbeat IPC: 0.745039 cumulative IPC: 0.745039 (Simulation time: 0 hr 4 min 25 sec) 
Heartbeat CPU 0 instructions: 70000002 cycles: 38421975 heartbeat IPC: 0.800018 cumulative IPC: 0.77155 (Simulation time: 0 hr 5 min 28 sec) 
Heartbeat CPU 0 instructions: 80000000 cycles: 52466396 heartbeat IPC: 0.712027 cumulative IPC: 0.750633 (Simulation time: 0 hr 6 min 31 sec) 
Heartbeat CPU 0 instructions: 90000000 cycles: 66602680 heartbeat IPC: 0.7074 cumulative IPC: 0.739337 (Simulation time: 0 hr 7 min 36 sec) 
Heartbeat CPU 0 instructions: 100000004 cycles: 80530842 heartbeat IPC: 0.717971 cumulative IPC: 0.734963 (Simulation time: 0 hr 8 min 41 sec) 
*** Reached end of trace: /gpfs/projects/bsc18/MN4/bsc18/romol/ChampSim/traces/qualcomm_srv/srv483_ap.champsimtrace.xz
Heartbeat CPU 0 instructions: 110000000 cycles: 93309012 heartbeat IPC: 0.782585 cumulative IPC: 0.742493 (Simulation time: 0 hr 9 min 45 sec) 
Heartbeat CPU 0 instructions: 120000003 cycles: 106478932 heartbeat IPC: 0.759307 cumulative IPC: 0.744849 (Simulation time: 0 hr 10 min 48 sec) 
Heartbeat CPU 0 instructions: 130000000 cycles: 119862435 heartbeat IPC: 0.747189 cumulative IPC: 0.745141 (Simulation time: 0 hr 11 min 58 sec) 
Heartbeat CPU 0 instructions: 140000001 cycles: 132520997 heartbeat IPC: 0.78998 cumulative IPC: 0.74987 (Simulation time: 0 hr 13 min 5 sec) 
Heartbeat CPU 0 instructions: 150000002 cycles: 145133961 heartbeat IPC: 0.792836 cumulative IPC: 0.753956 (Simulation time: 0 hr 14 min 14 sec) 
Simulation finished CPU 0 instructions: 100000001 cycles: 132633839 cumulative IPC: 0.753956 (Simulation time: 0 hr 14 min 14 sec) 

Simulation complete CPU 0 instructions: 100000001 cycles: 132633839 (Simulation time: 0 hr 14 min 14 sec) 


ChampSim completed all CPUs

Saving instructions large page distribution to /home/bsc/bsc018186/scratch/itp_asplos25_AE/dump/srv483_ap.pdst...
Saving data large page distribution to /home/bsc/bsc018186/scratch/itp_asplos25_AE/dump/srv483_ap.pdst...
=== Simulation ===
CPU 0 runs /gpfs/projects/bsc18/MN4/bsc18/romol/ChampSim/traces/qualcomm_srv/srv483_ap.champsimtrace.xz

Region of Interest Statistics

CPU 0 cumulative IPC: 0.753956 instructions: 100000001 cycles: 132633839
CPU 0 Branch Prediction Accuracy: 82.7754% MPKI: 30.8281 Average ROB Occupancy at Mispredict: 12.206
Branch type MPKI
BRANCH_DIRECT_JUMP: 1.03752
BRANCH_INDIRECT: 15.8271
BRANCH_CONDITIONAL: 10.2134
BRANCH_DIRECT_CALL: 1.87907
BRANCH_INDIRECT_CALL: 0.52587
BRANCH_RETURN: 1.34521

Instructions large pages: 0
Instructions small pages: 967
Large page distribution for instructions: 0%

Data large pages: 0
Data small pages: 9709
Large page distribution for data: 0%

cpu0_L1I TOTAL       ACCESS:   35480291  HIT:   27276778  MISS:    8203513  iACCESS:   35480291  iHIT:   27276778  iMISS:    8203513  dACCESS:          0  dHIT:          0  dMISS:          0  itACCESS:          0  itHIT:          0  itMISS:          0  dtACCESS:          0  dtHIT:          0  dtMISS:          0
cpu0_L1I LOAD         ACCESS:   10430412  HIT:    8122323  MISS:    2308089  iACCESS:   10430412  iHIT:    8122323  iMISS:    2308089  dACCESS:          0  dHIT:          0  dMISS:          0  itACCESS:          0  itHIT:          0  itMISS:          0  dtACCESS:          0  dtHIT:          0  dtMISS:          0
cpu0_L1I RFO          ACCESS:          0  HIT:          0  MISS:          0  iACCESS:          0  iHIT:          0  iMISS:          0  dACCESS:          0  dHIT:          0  dMISS:          0  itACCESS:          0  itHIT:          0  itMISS:          0  dtACCESS:          0  dtHIT:          0  dtMISS:          0
cpu0_L1I PREFETCH     ACCESS:   25049879  HIT:   19154455  MISS:    5895424  iACCESS:   25049879  iHIT:   19154455  iMISS:    5895424  dACCESS:          0  dHIT:          0  dMISS:          0  itACCESS:          0  itHIT:          0  itMISS:          0  dtACCESS:          0  dtHIT:          0  dtMISS:          0
cpu0_L1I WRITE        ACCESS:          0  HIT:          0  MISS:          0  iACCESS:          0  iHIT:          0  iMISS:          0  dACCESS:          0  dHIT:          0  dMISS:          0  itACCESS:          0  itHIT:          0  itMISS:          0  dtACCESS:          0  dtHIT:          0  dtMISS:          0
cpu0_L1I TRANSLATION  ACCESS:          0  HIT:          0  MISS:          0  iACCESS:          0  iHIT:          0  iMISS:          0  dACCESS:          0  dHIT:          0  dMISS:          0  itACCESS:          0  itHIT:          0  itMISS:          0  dtACCESS:          0  dtHIT:          0  dtMISS:          0
cpu0_L1I PREFETCH  REQUESTED:   27499601  ISSUED:   27498265  CROSSED:          0  USEFUL:    1961027  USELESS:     639811
cpu0_L1I AVERAGE iMISS LATENCY: 11.0936 cycles
cpu0_L1I AVERAGE dMISS LATENCY: 0 cycles
cpu0_L1I AVERAGE itMISS LATENCY: 0 cycles
cpu0_L1I AVERAGE dtMISS LATENCY: 0 cycles
cpu0_L1I PAGE CROSSINGS (TLB HIT):         0 
cpu0_L1I PAGE CROSSINGS (TLB MISS):         0 
cpu0_L1I AVERAGE MISS LATENCY: 11.0936 cycles
cpu0_ITLB TOTAL       ACCESS:   29527286  HIT:   27558293  MISS:    1968993  iACCESS:   29527286  iHIT:   27558293  iMISS:    1968993  dACCESS:          0  dHIT:          0  dMISS:          0  itACCESS:          0  itHIT:          0  itMISS:          0  dtACCESS:          0  dtHIT:          0  dtMISS:          0
cpu0_ITLB LOAD         ACCESS:   29527286  HIT:   27558293  MISS:    1968993  iACCESS:   29527286  iHIT:   27558293  iMISS:    1968993  dACCESS:          0  dHIT:          0  dMISS:          0  itACCESS:          0  itHIT:          0  itMISS:          0  dtACCESS:          0  dtHIT:          0  dtMISS:          0
cpu0_ITLB RFO          ACCESS:          0  HIT:          0  MISS:          0  iACCESS:          0  iHIT:          0  iMISS:          0  dACCESS:          0  dHIT:          0  dMISS:          0  itACCESS:          0  itHIT:          0  itMISS:          0  dtACCESS:          0  dtHIT:          0  dtMISS:          0
cpu0_ITLB PREFETCH     ACCESS:          0  HIT:          0  MISS:          0  iACCESS:          0  iHIT:          0  iMISS:          0  dACCESS:          0  dHIT:          0  dMISS:          0  itACCESS:          0  itHIT:          0  itMISS:          0  dtACCESS:          0  dtHIT:          0  dtMISS:          0
cpu0_ITLB WRITE        ACCESS:          0  HIT:          0  MISS:          0  iACCESS:          0  iHIT:          0  iMISS:          0  dACCESS:          0  dHIT:          0  dMISS:          0  itACCESS:          0  itHIT:          0  itMISS:          0  dtACCESS:          0  dtHIT:          0  dtMISS:          0
cpu0_ITLB TRANSLATION  ACCESS:          0  HIT:          0  MISS:          0  iACCESS:          0  iHIT:          0  iMISS:          0  dACCESS:          0  dHIT:          0  dMISS:          0  itACCESS:          0  itHIT:          0  itMISS:          0  dtACCESS:          0  dtHIT:          0  dtMISS:          0
cpu0_ITLB PREFETCH  REQUESTED:          0  ISSUED:          0  CROSSED:          0  USEFUL:     320190  USELESS:      65024
cpu0_ITLB AVERAGE iMISS LATENCY: 2.04039 cycles
cpu0_ITLB AVERAGE dMISS LATENCY: 0 cycles
cpu0_ITLB AVERAGE itMISS LATENCY: 0 cycles
cpu0_ITLB AVERAGE dtMISS LATENCY: 0 cycles
cpu0_ITLB PAGE CROSSINGS (TLB HIT):         0 
cpu0_ITLB PAGE CROSSINGS (TLB MISS):         0 
cpu0_ITLB AVERAGE MISS LATENCY: 2.04039 cycles
cpu0_DTLB TOTAL       ACCESS:   27751998  HIT:   25901672  MISS:    1850326  iACCESS:          0  iHIT:          0  iMISS:          0  dACCESS:   27751998  dHIT:   25901672  dMISS:    1850326  itACCESS:          0  itHIT:          0  itMISS:          0  dtACCESS:          0  dtHIT:          0  dtMISS:          0
cpu0_DTLB LOAD         ACCESS:   27751998  HIT:   25901672  MISS:    1850326  iACCESS:          0  iHIT:          0  iMISS:          0  dACCESS:   27751998  dHIT:   25901672  dMISS:    1850326  itACCESS:          0  itHIT:          0  itMISS:          0  dtACCESS:          0  dtHIT:          0  dtMISS:          0
cpu0_DTLB RFO          ACCESS:          0  HIT:          0  MISS:          0  iACCESS:          0  iHIT:          0  iMISS:          0  dACCESS:          0  dHIT:          0  dMISS:          0  itACCESS:          0  itHIT:          0  itMISS:          0  dtACCESS:          0  dtHIT:          0  dtMISS:          0
cpu0_DTLB PREFETCH     ACCESS:          0  HIT:          0  MISS:          0  iACCESS:          0  iHIT:          0  iMISS:          0  dACCESS:          0  dHIT:          0  dMISS:          0  itACCESS:          0  itHIT:          0  itMISS:          0  dtACCESS:          0  dtHIT:          0  dtMISS:          0
cpu0_DTLB WRITE        ACCESS:          0  HIT:          0  MISS:          0  iACCESS:          0  iHIT:          0  iMISS:          0  dACCESS:          0  dHIT:          0  dMISS:          0  itACCESS:          0  itHIT:          0  itMISS:          0  dtACCESS:          0  dtHIT:          0  dtMISS:          0
cpu0_DTLB TRANSLATION  ACCESS:          0  HIT:          0  MISS:          0  iACCESS:          0  iHIT:          0  iMISS:          0  dACCESS:          0  dHIT:          0  dMISS:          0  itACCESS:          0  itHIT:          0  itMISS:          0  dtACCESS:          0  dtHIT:          0  dtMISS:          0
cpu0_DTLB PREFETCH  REQUESTED:          0  ISSUED:          0  CROSSED:          0  USEFUL:          0  USELESS:          0
cpu0_DTLB AVERAGE iMISS LATENCY: 0 cycles
cpu0_DTLB AVERAGE dMISS LATENCY: 11.4737 cycles
cpu0_DTLB AVERAGE itMISS LATENCY: 0 cycles
cpu0_DTLB AVERAGE dtMISS LATENCY: 0 cycles
cpu0_DTLB PAGE CROSSINGS (TLB HIT):         0 
cpu0_DTLB PAGE CROSSINGS (TLB MISS):         0 
cpu0_DTLB AVERAGE MISS LATENCY: 11.4737 cycles
cpu0_STLB TOTAL       ACCESS:    1525592  HIT:    1381651  MISS:     143941  iACCESS:     385247  iHIT:     375146  iMISS:      10101  dACCESS:    1140345  dHIT:    1006505  dMISS:     133840  itACCESS:          0  itHIT:          0  itMISS:          0  dtACCESS:          0  dtHIT:          0  dtMISS:          0
cpu0_STLB LOAD         ACCESS:    1525592  HIT:    1381651  MISS:     143941  iACCESS:     385247  iHIT:     375146  iMISS:      10101  dACCESS:    1140345  dHIT:    1006505  dMISS:     133840  itACCESS:          0  itHIT:          0  itMISS:          0  dtACCESS:          0  dtHIT:          0  dtMISS:          0
cpu0_STLB RFO          ACCESS:          0  HIT:          0  MISS:          0  iACCESS:          0  iHIT:          0  iMISS:          0  dACCESS:          0  dHIT:          0  dMISS:          0  itACCESS:          0  itHIT:          0  itMISS:          0  dtACCESS:          0  dtHIT:          0  dtMISS:          0
cpu0_STLB PREFETCH     ACCESS:          0  HIT:          0  MISS:          0  iACCESS:          0  iHIT:          0  iMISS:          0  dACCESS:          0  dHIT:          0  dMISS:          0  itACCESS:          0  itHIT:          0  itMISS:          0  dtACCESS:          0  dtHIT:          0  dtMISS:          0
cpu0_STLB WRITE        ACCESS:          0  HIT:          0  MISS:          0  iACCESS:          0  iHIT:          0  iMISS:          0  dACCESS:          0  dHIT:          0  dMISS:          0  itACCESS:          0  itHIT:          0  itMISS:          0  dtACCESS:          0  dtHIT:          0  dtMISS:          0
cpu0_STLB TRANSLATION  ACCESS:          0  HIT:          0  MISS:          0  iACCESS:          0  iHIT:          0  iMISS:          0  dACCESS:          0  dHIT:          0  dMISS:          0  itACCESS:          0  itHIT:          0  itMISS:          0  dtACCESS:          0  dtHIT:          0  dtMISS:          0
cpu0_STLB PREFETCH  REQUESTED:          0  ISSUED:          0  CROSSED:          0  USEFUL:          0  USELESS:          0
cpu0_STLB AVERAGE iMISS LATENCY: 7.14001 cycles
cpu0_STLB AVERAGE dMISS LATENCY: 84.1652 cycles
cpu0_STLB AVERAGE itMISS LATENCY: 0 cycles
cpu0_STLB AVERAGE dtMISS LATENCY: 0 cycles
cpu0_STLB PAGE CROSSINGS (TLB HIT):         0 
cpu0_STLB PAGE CROSSINGS (TLB MISS):         0 
cpu0_STLB AVERAGE MISS LATENCY: 91.3052 cycles
cpu0_L1D TOTAL       ACCESS:   41535496  HIT:   38069820  MISS:    3465676  iACCESS:          0  iHIT:          0  iMISS:          0  dACCESS:   41324339  dHIT:   38056405  dMISS:    3267934  itACCESS:      11684  itHIT:       1217  itMISS:      10467  dtACCESS:     199473  dtHIT:      12198  dtMISS:     187275
cpu0_L1D LOAD         ACCESS:   18981517  HIT:   17488971  MISS:    1492546  iACCESS:          0  iHIT:          0  iMISS:          0  dACCESS:   18981517  dHIT:   17488971  dMISS:    1492546  itACCESS:          0  itHIT:          0  itMISS:          0  dtACCESS:          0  dtHIT:          0  dtMISS:          0
cpu0_L1D RFO          ACCESS:          0  HIT:          0  MISS:          0  iACCESS:          0  iHIT:          0  iMISS:          0  dACCESS:          0  dHIT:          0  dMISS:          0  itACCESS:          0  itHIT:          0  itMISS:          0  dtACCESS:          0  dtHIT:          0  dtMISS:          0
cpu0_L1D PREFETCH     ACCESS:   12158976  HIT:   10813420  MISS:    1345556  iACCESS:          0  iHIT:          0  iMISS:          0  dACCESS:   12158976  dHIT:   10813420  dMISS:    1345556  itACCESS:          0  itHIT:          0  itMISS:          0  dtACCESS:          0  dtHIT:          0  dtMISS:          0
cpu0_L1D WRITE        ACCESS:   10183846  HIT:    9754014  MISS:     429832  iACCESS:          0  iHIT:          0  iMISS:          0  dACCESS:   10183846  dHIT:    9754014  dMISS:     429832  itACCESS:          0  itHIT:          0  itMISS:          0  dtACCESS:          0  dtHIT:          0  dtMISS:          0
cpu0_L1D TRANSLATION  ACCESS:     211157  HIT:      13415  MISS:     197742  iACCESS:          0  iHIT:          0  iMISS:          0  dACCESS:          0  dHIT:          0  dMISS:          0  itACCESS:      11684  itHIT:       1217  itMISS:      10467  dtACCESS:     199473  dtHIT:      12198  dtMISS:     187275
cpu0_L1D PREFETCH  REQUESTED:   18981517  ISSUED:   16976414  CROSSED:          0  USEFUL:     306851  USELESS:     706196
cpu0_L1D AVERAGE iMISS LATENCY: 0 cycles
cpu0_L1D AVERAGE dMISS LATENCY: 29.9592 cycles
cpu0_L1D AVERAGE itMISS LATENCY: 0.265329 cycles
cpu0_L1D AVERAGE dtMISS LATENCY: 2.70549 cycles
cpu0_L1D PAGE CROSSINGS (TLB HIT):         0 
cpu0_L1D PAGE CROSSINGS (TLB MISS):         0 
cpu0_L1D AVERAGE MISS LATENCY: 32.93 cycles
cpu0_L2C TOTAL       ACCESS:    7063377  HIT:    2747799  MISS:    4315578  iACCESS:    3361064  iHIT:    1544216  iMISS:    1816848  dACCESS:    3513848  dHIT:    1073313  dMISS:    2440535  itACCESS:      10467  itHIT:       4211  itMISS:       6256  dtACCESS:     177998  dtHIT:     126059  dtMISS:      51939
cpu0_L2C LOAD         ACCESS:    1736463  HIT:     612601  MISS:    1123862  iACCESS:     800058  iHIT:     340606  iMISS:     459452  dACCESS:     936405  dHIT:     271995  dMISS:     664410  itACCESS:          0  itHIT:          0  itMISS:          0  dtACCESS:          0  dtHIT:          0  dtMISS:          0
cpu0_L2C RFO          ACCESS:     158918  HIT:      34358  MISS:     124560  iACCESS:          0  iHIT:          0  iMISS:          0  dACCESS:     158918  dHIT:      34358  dMISS:     124560  itACCESS:          0  itHIT:          0  itMISS:          0  dtACCESS:          0  dtHIT:          0  dtMISS:          0
cpu0_L2C PREFETCH     ACCESS:    4695820  HIT:    1843945  MISS:    2851875  iACCESS:    2561006  iHIT:    1203610  iMISS:    1357396  dACCESS:    2134814  dHIT:     640335  dMISS:    1494479  itACCESS:          0  itHIT:          0  itMISS:          0  dtACCESS:          0  dtHIT:          0  dtMISS:          0
cpu0_L2C WRITE        ACCESS:     283711  HIT:     126625  MISS:     157086  iACCESS:          0  iHIT:          0  iMISS:          0  dACCESS:     283711  dHIT:     126625  dMISS:     157086  itACCESS:          0  itHIT:          0  itMISS:          0  dtACCESS:          0  dtHIT:          0  dtMISS:          0
cpu0_L2C TRANSLATION  ACCESS:     188465  HIT:     130270  MISS:      58195  iACCESS:          0  iHIT:          0  iMISS:          0  dACCESS:          0  dHIT:          0  dMISS:          0  itACCESS:      10467  itHIT:       4211  itMISS:       6256  dtACCESS:     177998  dtHIT:     126059  dtMISS:      51939
cpu0_L2C PREFETCH  REQUESTED:    1383329  ISSUED:    1383329  CROSSED:          0  USEFUL:     362996  USELESS:     318811
cpu0_L2C AVERAGE iMISS LATENCY: 13.8272 cycles
cpu0_L2C AVERAGE dMISS LATENCY: 26.9754 cycles
cpu0_L2C AVERAGE itMISS LATENCY: 0.189713 cycles
cpu0_L2C AVERAGE dtMISS LATENCY: 1.78713 cycles
cpu0_L2C PAGE CROSSINGS (TLB HIT):         0 
cpu0_L2C PAGE CROSSINGS (TLB MISS):         0 
cpu0_L2C AVERAGE MISS LATENCY: 42.7794 cycles
LLC TOTAL       ACCESS:    4268204  HIT:    3610792  MISS:     657412  iACCESS:    1772028  iHIT:    1604121  iMISS:     167907  dACCESS:    2437981  dHIT:    1990952  dMISS:     447029  itACCESS:       6256  itHIT:       2212  itMISS:       4044  dtACCESS:      51939  dtHIT:      13507  dtMISS:      38432
LLC LOAD         ACCESS:    1121977  HIT:     977157  MISS:     144820  iACCESS:     457910  iHIT:     423813  iMISS:      34097  dACCESS:     664067  dHIT:     553344  dMISS:     110723  itACCESS:          0  itHIT:          0  itMISS:          0  dtACCESS:          0  dtHIT:          0  dtMISS:          0
LLC RFO          ACCESS:     124557  HIT:      89981  MISS:      34576  iACCESS:          0  iHIT:          0  iMISS:          0  dACCESS:     124557  dHIT:      89981  dMISS:      34576  itACCESS:          0  itHIT:          0  itMISS:          0  dtACCESS:          0  dtHIT:          0  dtMISS:          0
LLC PREFETCH     ACCESS:    2765860  HIT:    2332324  MISS:     433536  iACCESS:    1314118  iHIT:    1180308  iMISS:     133810  dACCESS:    1451742  dHIT:    1152016  dMISS:     299726  itACCESS:          0  itHIT:          0  itMISS:          0  dtACCESS:          0  dtHIT:          0  dtMISS:          0
LLC WRITE        ACCESS:     197615  HIT:     195611  MISS:       2004  iACCESS:          0  iHIT:          0  iMISS:          0  dACCESS:     197615  dHIT:     195611  dMISS:       2004  itACCESS:          0  itHIT:          0  itMISS:          0  dtACCESS:          0  dtHIT:          0  dtMISS:          0
LLC TRANSLATION  ACCESS:      58195  HIT:      15719  MISS:      42476  iACCESS:          0  iHIT:          0  iMISS:          0  dACCESS:          0  dHIT:          0  dMISS:          0  itACCESS:       6256  itHIT:       2212  itMISS:       4044  dtACCESS:      51939  dtHIT:      13507  dtMISS:      38432
LLC PREFETCH  REQUESTED:          0  ISSUED:          0  CROSSED:          0  USEFUL:          0  USELESS:          0
LLC AVERAGE iMISS LATENCY: 38.7894 cycles
LLC AVERAGE dMISS LATENCY: 111.305 cycles
LLC AVERAGE itMISS LATENCY: 1.05874 cycles
LLC AVERAGE dtMISS LATENCY: 10.1766 cycles
LLC PAGE CROSSINGS (TLB HIT):         0 
LLC PAGE CROSSINGS (TLB MISS):         0 
LLC AVERAGE MISS LATENCY: 161.33 cycles

PageTableWalker TOTAL       ACCESS:      68088  
PageTableWalker AVERAGE LATENCY: 4.72098 cycles
PageTableWalker TOTAL LATENCY: 321442 cycles

DRAM Statistics
Channel 0
 RQ ROW_BUFFER_HIT:     162636
  ROW_BUFFER_MISS:     492682
 AVG DBUS CONGESTED CYCLE:    3.64226
 WQ ROW_BUFFER_HIT:      16052
  ROW_BUFFER_MISS:      27106  FULL:          0

