last_page:0x200000000000000
VMEM_RES_CAP:0x100000
PAGE_SIZE:4096
LOG2_PAGE_SIZE:12
LOG2_PAGE_TABLE_SIZE:9
page_table_levels:5
WARNING: physical memory size is smaller than virtual memory size
FDiP enabled with aggresivity 16

*** ChampSim Multicore Out-of-Order Simulator ***

Warmup Instructions: 50000000
Simulation Instructions: 100000000
Number of CPUs: 1
Small page size: 4096
Large page size: 2097152

CPU 0 Bimodal branch predictor
Basic BTB sets: 1024 ways: 8 indirect buffer size: 4096 RAS size: 64
Instruction page size distrubution: 0
Loading instruction page size distribution from /home/bsc/bsc018186/scratch/itp_asplos25_AE/dump/srv401_ap.pdst
Data page size distrubution: 0
Loading data page size distribution from /home/bsc/bsc018186/scratch/itp_asplos25_AE/dump/srv401_ap.pdst
cpu0_L2C IP-based stride prefetcher
cpu0_L2C is using PTP replacement policy:
	TLB_STRESS_THRESHOLD:0
	PTE_EVICTION_RATIO:0
cpu0_L1D next line prefetcher
cpu0_STLB using iTP with max lru@8
cpu0_STLB using iTP with instr@0 and data@2
Init sat counter with 3 bits (max:50).
cpu0_L1I next line prefetcher
Off-chip DRAM Size: 4 GiB Channels: 1 Width: 64-bit Data Rate: 3200 MT/s
Heartbeat CPU 0 instructions: 10000003 cycles: 2500221 heartbeat IPC: 3.99965 cumulative IPC: 3.99965 (Simulation time: 0 hr 0 min 36 sec) 
Heartbeat CPU 0 instructions: 20000003 cycles: 5000221 heartbeat IPC: 4 cumulative IPC: 3.99983 (Simulation time: 0 hr 1 min 16 sec) 
Heartbeat CPU 0 instructions: 30000002 cycles: 7500229 heartbeat IPC: 3.99999 cumulative IPC: 3.99988 (Simulation time: 0 hr 1 min 57 sec) 
Heartbeat CPU 0 instructions: 40000003 cycles: 10000347 heartbeat IPC: 3.99982 cumulative IPC: 3.99987 (Simulation time: 0 hr 2 min 37 sec) 
Heartbeat CPU 0 instructions: 50000003 cycles: 12500353 heartbeat IPC: 4 cumulative IPC: 3.99989 (Simulation time: 0 hr 3 min 16 sec) 
Warmup finished CPU 0 instructions: 50000003 cycles: 12500354 cumulative IPC: 3.99989 (Simulation time: 0 hr 3 min 16 sec) 

Warmup complete CPU 0 instructions: 50000003 cycles: 12500354 (Simulation time: 0 hr 3 min 16 sec) 

Heartbeat CPU 0 instructions: 60000003 cycles: 27473032 heartbeat IPC: 0.667884 cumulative IPC: 0.667884 (Simulation time: 0 hr 4 min 19 sec) 
Heartbeat CPU 0 instructions: 70000002 cycles: 41554524 heartbeat IPC: 0.710152 cumulative IPC: 0.68837 (Simulation time: 0 hr 5 min 24 sec) 
Heartbeat CPU 0 instructions: 80000001 cycles: 56959636 heartbeat IPC: 0.649136 cumulative IPC: 0.674775 (Simulation time: 0 hr 6 min 34 sec) 
Heartbeat CPU 0 instructions: 90000002 cycles: 71649241 heartbeat IPC: 0.680754 cumulative IPC: 0.67626 (Simulation time: 0 hr 7 min 44 sec) 
Heartbeat CPU 0 instructions: 100000000 cycles: 86403286 heartbeat IPC: 0.677781 cumulative IPC: 0.676564 (Simulation time: 0 hr 8 min 53 sec) 
*** Reached end of trace: /gpfs/projects/bsc18/MN4/bsc18/romol/ChampSim/traces/qualcomm_srv/srv401_ap.champsimtrace.xz
Heartbeat CPU 0 instructions: 110000004 cycles: 101360388 heartbeat IPC: 0.668579 cumulative IPC: 0.67522 (Simulation time: 0 hr 10 min 3 sec) 
Heartbeat CPU 0 instructions: 120000003 cycles: 115202718 heartbeat IPC: 0.722422 cumulative IPC: 0.681582 (Simulation time: 0 hr 11 min 12 sec) 
Heartbeat CPU 0 instructions: 130000004 cycles: 129143439 heartbeat IPC: 0.717324 cumulative IPC: 0.685853 (Simulation time: 0 hr 12 min 18 sec) 
Heartbeat CPU 0 instructions: 140000003 cycles: 142935328 heartbeat IPC: 0.725064 cumulative IPC: 0.689999 (Simulation time: 0 hr 13 min 20 sec) 
Heartbeat CPU 0 instructions: 150000001 cycles: 156763568 heartbeat IPC: 0.723158 cumulative IPC: 0.693178 (Simulation time: 0 hr 14 min 27 sec) 
Simulation finished CPU 0 instructions: 100000003 cycles: 144263216 cumulative IPC: 0.693178 (Simulation time: 0 hr 14 min 27 sec) 

Simulation complete CPU 0 instructions: 100000003 cycles: 144263216 (Simulation time: 0 hr 14 min 27 sec) 


ChampSim completed all CPUs

Saving instructions large page distribution to /home/bsc/bsc018186/scratch/itp_asplos25_AE/dump/srv401_ap.pdst...
Saving data large page distribution to /home/bsc/bsc018186/scratch/itp_asplos25_AE/dump/srv401_ap.pdst...
=== Simulation ===
CPU 0 runs /gpfs/projects/bsc18/MN4/bsc18/romol/ChampSim/traces/qualcomm_srv/srv401_ap.champsimtrace.xz

Region of Interest Statistics

CPU 0 cumulative IPC: 0.693178 instructions: 100000003 cycles: 144263216
CPU 0 Branch Prediction Accuracy: 83.2172% MPKI: 30.0396 Average ROB Occupancy at Mispredict: 13.2931
Branch type MPKI
BRANCH_DIRECT_JUMP: 1.01862
BRANCH_INDIRECT: 15.6871
BRANCH_CONDITIONAL: 9.67775
BRANCH_DIRECT_CALL: 1.82815
BRANCH_INDIRECT_CALL: 0.50017
BRANCH_RETURN: 1.32778

Instructions large pages: 0
Instructions small pages: 1046
Large page distribution for instructions: 0%

Data large pages: 0
Data small pages: 10425
Large page distribution for data: 0%

cpu0_L1I TOTAL       ACCESS:   35358615  HIT:   26955838  MISS:    8402777  iACCESS:   35358615  iHIT:   26955838  iMISS:    8402777  dACCESS:          0  dHIT:          0  dMISS:          0  itACCESS:          0  itHIT:          0  itMISS:          0  dtACCESS:          0  dtHIT:          0  dtMISS:          0
cpu0_L1I LOAD         ACCESS:   10385157  HIT:    8031357  MISS:    2353800  iACCESS:   10385157  iHIT:    8031357  iMISS:    2353800  dACCESS:          0  dHIT:          0  dMISS:          0  itACCESS:          0  itHIT:          0  itMISS:          0  dtACCESS:          0  dtHIT:          0  dtMISS:          0
cpu0_L1I RFO          ACCESS:          0  HIT:          0  MISS:          0  iACCESS:          0  iHIT:          0  iMISS:          0  dACCESS:          0  dHIT:          0  dMISS:          0  itACCESS:          0  itHIT:          0  itMISS:          0  dtACCESS:          0  dtHIT:          0  dtMISS:          0
cpu0_L1I PREFETCH     ACCESS:   24973458  HIT:   18924481  MISS:    6048977  iACCESS:   24973458  iHIT:   18924481  iMISS:    6048977  dACCESS:          0  dHIT:          0  dMISS:          0  itACCESS:          0  itHIT:          0  itMISS:          0  dtACCESS:          0  dtHIT:          0  dtMISS:          0
cpu0_L1I WRITE        ACCESS:          0  HIT:          0  MISS:          0  iACCESS:          0  iHIT:          0  iMISS:          0  dACCESS:          0  dHIT:          0  dMISS:          0  itACCESS:          0  itHIT:          0  itMISS:          0  dtACCESS:          0  dtHIT:          0  dtMISS:          0
cpu0_L1I TRANSLATION  ACCESS:          0  HIT:          0  MISS:          0  iACCESS:          0  iHIT:          0  iMISS:          0  dACCESS:          0  dHIT:          0  dMISS:          0  itACCESS:          0  itHIT:          0  itMISS:          0  dtACCESS:          0  dtHIT:          0  dtMISS:          0
cpu0_L1I PREFETCH  REQUESTED:   27300445  ISSUED:   27298745  CROSSED:          0  USEFUL:    1896664  USELESS:     622891
cpu0_L1I AVERAGE iMISS LATENCY: 14.3285 cycles
cpu0_L1I AVERAGE dMISS LATENCY: 0 cycles
cpu0_L1I AVERAGE itMISS LATENCY: 0 cycles
cpu0_L1I AVERAGE dtMISS LATENCY: 0 cycles
cpu0_L1I PAGE CROSSINGS (TLB HIT):         0 
cpu0_L1I PAGE CROSSINGS (TLB MISS):         0 
cpu0_L1I AVERAGE MISS LATENCY: 14.3285 cycles
cpu0_ITLB TOTAL       ACCESS:   29193799  HIT:   27235292  MISS:    1958507  iACCESS:   29193799  iHIT:   27235292  iMISS:    1958507  dACCESS:          0  dHIT:          0  dMISS:          0  itACCESS:          0  itHIT:          0  itMISS:          0  dtACCESS:          0  dtHIT:          0  dtMISS:          0
cpu0_ITLB LOAD         ACCESS:   29193799  HIT:   27235292  MISS:    1958507  iACCESS:   29193799  iHIT:   27235292  iMISS:    1958507  dACCESS:          0  dHIT:          0  dMISS:          0  itACCESS:          0  itHIT:          0  itMISS:          0  dtACCESS:          0  dtHIT:          0  dtMISS:          0
cpu0_ITLB RFO          ACCESS:          0  HIT:          0  MISS:          0  iACCESS:          0  iHIT:          0  iMISS:          0  dACCESS:          0  dHIT:          0  dMISS:          0  itACCESS:          0  itHIT:          0  itMISS:          0  dtACCESS:          0  dtHIT:          0  dtMISS:          0
cpu0_ITLB PREFETCH     ACCESS:          0  HIT:          0  MISS:          0  iACCESS:          0  iHIT:          0  iMISS:          0  dACCESS:          0  dHIT:          0  dMISS:          0  itACCESS:          0  itHIT:          0  itMISS:          0  dtACCESS:          0  dtHIT:          0  dtMISS:          0
cpu0_ITLB WRITE        ACCESS:          0  HIT:          0  MISS:          0  iACCESS:          0  iHIT:          0  iMISS:          0  dACCESS:          0  dHIT:          0  dMISS:          0  itACCESS:          0  itHIT:          0  itMISS:          0  dtACCESS:          0  dtHIT:          0  dtMISS:          0
cpu0_ITLB TRANSLATION  ACCESS:          0  HIT:          0  MISS:          0  iACCESS:          0  iHIT:          0  iMISS:          0  dACCESS:          0  dHIT:          0  dMISS:          0  itACCESS:          0  itHIT:          0  itMISS:          0  dtACCESS:          0  dtHIT:          0  dtMISS:          0
cpu0_ITLB PREFETCH  REQUESTED:          0  ISSUED:          0  CROSSED:          0  USEFUL:     320696  USELESS:      66675
cpu0_ITLB AVERAGE iMISS LATENCY: 1.92565 cycles
cpu0_ITLB AVERAGE dMISS LATENCY: 0 cycles
cpu0_ITLB AVERAGE itMISS LATENCY: 0 cycles
cpu0_ITLB AVERAGE dtMISS LATENCY: 0 cycles
cpu0_ITLB PAGE CROSSINGS (TLB HIT):         0 
cpu0_ITLB PAGE CROSSINGS (TLB MISS):         0 
cpu0_ITLB AVERAGE MISS LATENCY: 1.92565 cycles
cpu0_DTLB TOTAL       ACCESS:   27859282  HIT:   25846269  MISS:    2013013  iACCESS:          0  iHIT:          0  iMISS:          0  dACCESS:   27859282  dHIT:   25846269  dMISS:    2013013  itACCESS:          0  itHIT:          0  itMISS:          0  dtACCESS:          0  dtHIT:          0  dtMISS:          0
cpu0_DTLB LOAD         ACCESS:   27859282  HIT:   25846269  MISS:    2013013  iACCESS:          0  iHIT:          0  iMISS:          0  dACCESS:   27859282  dHIT:   25846269  dMISS:    2013013  itACCESS:          0  itHIT:          0  itMISS:          0  dtACCESS:          0  dtHIT:          0  dtMISS:          0
cpu0_DTLB RFO          ACCESS:          0  HIT:          0  MISS:          0  iACCESS:          0  iHIT:          0  iMISS:          0  dACCESS:          0  dHIT:          0  dMISS:          0  itACCESS:          0  itHIT:          0  itMISS:          0  dtACCESS:          0  dtHIT:          0  dtMISS:          0
cpu0_DTLB PREFETCH     ACCESS:          0  HIT:          0  MISS:          0  iACCESS:          0  iHIT:          0  iMISS:          0  dACCESS:          0  dHIT:          0  dMISS:          0  itACCESS:          0  itHIT:          0  itMISS:          0  dtACCESS:          0  dtHIT:          0  dtMISS:          0
cpu0_DTLB WRITE        ACCESS:          0  HIT:          0  MISS:          0  iACCESS:          0  iHIT:          0  iMISS:          0  dACCESS:          0  dHIT:          0  dMISS:          0  itACCESS:          0  itHIT:          0  itMISS:          0  dtACCESS:          0  dtHIT:          0  dtMISS:          0
cpu0_DTLB TRANSLATION  ACCESS:          0  HIT:          0  MISS:          0  iACCESS:          0  iHIT:          0  iMISS:          0  dACCESS:          0  dHIT:          0  dMISS:          0  itACCESS:          0  itHIT:          0  itMISS:          0  dtACCESS:          0  dtHIT:          0  dtMISS:          0
cpu0_DTLB PREFETCH  REQUESTED:          0  ISSUED:          0  CROSSED:          0  USEFUL:          0  USELESS:          0
cpu0_DTLB AVERAGE iMISS LATENCY: 0 cycles
cpu0_DTLB AVERAGE dMISS LATENCY: 10.6775 cycles
cpu0_DTLB AVERAGE itMISS LATENCY: 0 cycles
cpu0_DTLB AVERAGE dtMISS LATENCY: 0 cycles
cpu0_DTLB PAGE CROSSINGS (TLB HIT):         0 
cpu0_DTLB PAGE CROSSINGS (TLB MISS):         0 
cpu0_DTLB AVERAGE MISS LATENCY: 10.6775 cycles
cpu0_STLB TOTAL       ACCESS:    1632613  HIT:    1484493  MISS:     148120  iACCESS:     387400  iHIT:     379478  iMISS:       7922  dACCESS:    1245213  dHIT:    1105015  dMISS:     140198  itACCESS:          0  itHIT:          0  itMISS:          0  dtACCESS:          0  dtHIT:          0  dtMISS:          0
cpu0_STLB LOAD         ACCESS:    1632613  HIT:    1484493  MISS:     148120  iACCESS:     387400  iHIT:     379478  iMISS:       7922  dACCESS:    1245213  dHIT:    1105015  dMISS:     140198  itACCESS:          0  itHIT:          0  itMISS:          0  dtACCESS:          0  dtHIT:          0  dtMISS:          0
cpu0_STLB RFO          ACCESS:          0  HIT:          0  MISS:          0  iACCESS:          0  iHIT:          0  iMISS:          0  dACCESS:          0  dHIT:          0  dMISS:          0  itACCESS:          0  itHIT:          0  itMISS:          0  dtACCESS:          0  dtHIT:          0  dtMISS:          0
cpu0_STLB PREFETCH     ACCESS:          0  HIT:          0  MISS:          0  iACCESS:          0  iHIT:          0  iMISS:          0  dACCESS:          0  dHIT:          0  dMISS:          0  itACCESS:          0  itHIT:          0  itMISS:          0  dtACCESS:          0  dtHIT:          0  dtMISS:          0
cpu0_STLB WRITE        ACCESS:          0  HIT:          0  MISS:          0  iACCESS:          0  iHIT:          0  iMISS:          0  dACCESS:          0  dHIT:          0  dMISS:          0  itACCESS:          0  itHIT:          0  itMISS:          0  dtACCESS:          0  dtHIT:          0  dtMISS:          0
cpu0_STLB TRANSLATION  ACCESS:          0  HIT:          0  MISS:          0  iACCESS:          0  iHIT:          0  iMISS:          0  dACCESS:          0  dHIT:          0  dMISS:          0  itACCESS:          0  itHIT:          0  itMISS:          0  dtACCESS:          0  dtHIT:          0  dtMISS:          0
cpu0_STLB PREFETCH  REQUESTED:          0  ISSUED:          0  CROSSED:          0  USEFUL:          0  USELESS:          0
cpu0_STLB AVERAGE iMISS LATENCY: 5.17632 cycles
cpu0_STLB AVERAGE dMISS LATENCY: 77.927 cycles
cpu0_STLB AVERAGE itMISS LATENCY: 0 cycles
cpu0_STLB AVERAGE dtMISS LATENCY: 0 cycles
cpu0_STLB PAGE CROSSINGS (TLB HIT):         0 
cpu0_STLB PAGE CROSSINGS (TLB MISS):         0 
cpu0_STLB AVERAGE MISS LATENCY: 83.1033 cycles
cpu0_L1D TOTAL       ACCESS:   41633957  HIT:   38086084  MISS:    3547873  iACCESS:          0  iHIT:          0  iMISS:          0  dACCESS:   41413234  dHIT:   38071266  dMISS:    3341968  itACCESS:       9767  itHIT:       1030  itMISS:       8737  dtACCESS:     210956  dtHIT:      13788  dtMISS:     197168
cpu0_L1D LOAD         ACCESS:   19033195  HIT:   17524947  MISS:    1508248  iACCESS:          0  iHIT:          0  iMISS:          0  dACCESS:   19033195  dHIT:   17524947  dMISS:    1508248  itACCESS:          0  itHIT:          0  itMISS:          0  dtACCESS:          0  dtHIT:          0  dtMISS:          0
cpu0_L1D RFO          ACCESS:          0  HIT:          0  MISS:          0  iACCESS:          0  iHIT:          0  iMISS:          0  dACCESS:          0  dHIT:          0  dMISS:          0  itACCESS:          0  itHIT:          0  itMISS:          0  dtACCESS:          0  dtHIT:          0  dtMISS:          0
cpu0_L1D PREFETCH     ACCESS:   12184410  HIT:   10798721  MISS:    1385689  iACCESS:          0  iHIT:          0  iMISS:          0  dACCESS:   12184410  dHIT:   10798721  dMISS:    1385689  itACCESS:          0  itHIT:          0  itMISS:          0  dtACCESS:          0  dtHIT:          0  dtMISS:          0
cpu0_L1D WRITE        ACCESS:   10195629  HIT:    9747598  MISS:     448031  iACCESS:          0  iHIT:          0  iMISS:          0  dACCESS:   10195629  dHIT:    9747598  dMISS:     448031  itACCESS:          0  itHIT:          0  itMISS:          0  dtACCESS:          0  dtHIT:          0  dtMISS:          0
cpu0_L1D TRANSLATION  ACCESS:     220723  HIT:      14818  MISS:     205905  iACCESS:          0  iHIT:          0  iMISS:          0  dACCESS:          0  dHIT:          0  dMISS:          0  itACCESS:       9767  itHIT:       1030  itMISS:       8737  dtACCESS:     210956  dtHIT:      13788  dtMISS:     197168
cpu0_L1D PREFETCH  REQUESTED:   19033195  ISSUED:   16970098  CROSSED:          0  USEFUL:     306452  USELESS:     700083
cpu0_L1D AVERAGE iMISS LATENCY: 0 cycles
cpu0_L1D AVERAGE dMISS LATENCY: 36.6814 cycles
cpu0_L1D AVERAGE itMISS LATENCY: 0.188484 cycles
cpu0_L1D AVERAGE dtMISS LATENCY: 2.41196 cycles
cpu0_L1D PAGE CROSSINGS (TLB HIT):         0 
cpu0_L1D PAGE CROSSINGS (TLB MISS):         0 
cpu0_L1D AVERAGE MISS LATENCY: 39.2819 cycles
cpu0_L2C TOTAL       ACCESS:    6921876  HIT:    1195576  MISS:    5726300  iACCESS:    3267031  iHIT:     687032  iMISS:    2579999  dACCESS:    3459273  dHIT:     364973  dMISS:    3094300  itACCESS:       8627  itHIT:       3723  itMISS:       4904  dtACCESS:     186945  dtHIT:     139848  dtMISS:      47097
cpu0_L2C LOAD         ACCESS:    1710271  HIT:     135250  MISS:    1575021  iACCESS:     781052  iHIT:      98104  iMISS:     682948  dACCESS:     929219  dHIT:      37146  dMISS:     892073  itACCESS:          0  itHIT:          0  itMISS:          0  dtACCESS:          0  dtHIT:          0  dtMISS:          0
cpu0_L2C RFO          ACCESS:     157162  HIT:       9400  MISS:     147762  iACCESS:          0  iHIT:          0  iMISS:          0  dACCESS:     157162  dHIT:       9400  dMISS:     147762  itACCESS:          0  itHIT:          0  itMISS:          0  dtACCESS:          0  dtHIT:          0  dtMISS:          0
cpu0_L2C PREFETCH     ACCESS:    4575070  HIT:     853460  MISS:    3721610  iACCESS:    2485979  iHIT:     588928  iMISS:    1897051  dACCESS:    2089091  dHIT:     264532  dMISS:    1824559  itACCESS:          0  itHIT:          0  itMISS:          0  dtACCESS:          0  dtHIT:          0  dtMISS:          0
cpu0_L2C WRITE        ACCESS:     283801  HIT:      53895  MISS:     229906  iACCESS:          0  iHIT:          0  iMISS:          0  dACCESS:     283801  dHIT:      53895  dMISS:     229906  itACCESS:          0  itHIT:          0  itMISS:          0  dtACCESS:          0  dtHIT:          0  dtMISS:          0
cpu0_L2C TRANSLATION  ACCESS:     195572  HIT:     143571  MISS:      52001  iACCESS:          0  iHIT:          0  iMISS:          0  dACCESS:          0  dHIT:          0  dMISS:          0  itACCESS:       8627  itHIT:       3723  itMISS:       4904  dtACCESS:     186945  dtHIT:     139848  dtMISS:      47097
cpu0_L2C PREFETCH  REQUESTED:    1333038  ISSUED:    1333038  CROSSED:          0  USEFUL:     408101  USELESS:     383890
cpu0_L2C AVERAGE iMISS LATENCY: 15.7578 cycles
cpu0_L2C AVERAGE dMISS LATENCY: 26.4051 cycles
cpu0_L2C AVERAGE itMISS LATENCY: 0.102336 cycles
cpu0_L2C AVERAGE dtMISS LATENCY: 1.19072 cycles
cpu0_L2C PAGE CROSSINGS (TLB HIT):         0 
cpu0_L2C PAGE CROSSINGS (TLB MISS):         0 
cpu0_L2C AVERAGE MISS LATENCY: 43.4559 cycles
LLC TOTAL       ACCESS:    5638502  HIT:    4736944  MISS:     901558  iACCESS:    2523559  iHIT:    2243953  iMISS:     279606  dACCESS:    3062942  dHIT:    2477286  dMISS:     585656  itACCESS:       4904  itHIT:       2097  itMISS:       2807  dtACCESS:      47097  dtHIT:      13608  dtMISS:      33489
LLC LOAD         ACCESS:    1573050  HIT:    1361845  MISS:     211205  iACCESS:     681595  iHIT:     621728  iMISS:      59867  dACCESS:     891455  dHIT:     740117  dMISS:     151338  itACCESS:          0  itHIT:          0  itMISS:          0  dtACCESS:          0  dtHIT:          0  dtMISS:          0
LLC RFO          ACCESS:     147726  HIT:     103599  MISS:      44127  iACCESS:          0  iHIT:          0  iMISS:          0  dACCESS:     147726  dHIT:     103599  dMISS:      44127  itACCESS:          0  itHIT:          0  itMISS:          0  dtACCESS:          0  dtHIT:          0  dtMISS:          0
LLC PREFETCH     ACCESS:    3608190  HIT:    2998260  MISS:     609930  iACCESS:    1841964  iHIT:    1622225  iMISS:     219739  dACCESS:    1766226  dHIT:    1376035  dMISS:     390191  itACCESS:          0  itHIT:          0  itMISS:          0  dtACCESS:          0  dtHIT:          0  dtMISS:          0
LLC WRITE        ACCESS:     257535  HIT:     257535  MISS:          0  iACCESS:          0  iHIT:          0  iMISS:          0  dACCESS:     257535  dHIT:     257535  dMISS:          0  itACCESS:          0  itHIT:          0  itMISS:          0  dtACCESS:          0  dtHIT:          0  dtMISS:          0
LLC TRANSLATION  ACCESS:      52001  HIT:      15705  MISS:      36296  iACCESS:          0  iHIT:          0  iMISS:          0  dACCESS:          0  dHIT:          0  dMISS:          0  itACCESS:       4904  itHIT:       2097  itMISS:       2807  dtACCESS:      47097  dtHIT:      13608  dtMISS:      33489
LLC PREFETCH  REQUESTED:          0  ISSUED:          0  CROSSED:          0  USEFUL:          0  USELESS:          0
LLC AVERAGE iMISS LATENCY: 46.0566 cycles
LLC AVERAGE dMISS LATENCY: 107.637 cycles
LLC AVERAGE itMISS LATENCY: 0.543717 cycles
LLC AVERAGE dtMISS LATENCY: 6.53588 cycles
LLC PAGE CROSSINGS (TLB HIT):         0 
LLC PAGE CROSSINGS (TLB MISS):         0 
LLC AVERAGE MISS LATENCY: 160.774 cycles

PageTableWalker TOTAL       ACCESS:      71783  
PageTableWalker AVERAGE LATENCY: 4.77687 cycles
PageTableWalker TOTAL LATENCY: 342898 cycles

DRAM Statistics
Channel 0
 RQ ROW_BUFFER_HIT:     247985
  ROW_BUFFER_MISS:     653487
 AVG DBUS CONGESTED CYCLE:    3.62967
 WQ ROW_BUFFER_HIT:      24124
  ROW_BUFFER_MISS:      31339  FULL:          0

