last_page:0x200000000000000
VMEM_RES_CAP:0x100000
PAGE_SIZE:4096
LOG2_PAGE_SIZE:12
LOG2_PAGE_TABLE_SIZE:9
page_table_levels:5
WARNING: physical memory size is smaller than virtual memory size
FDiP enabled with aggresivity 16

*** ChampSim Multicore Out-of-Order Simulator ***

Warmup Instructions: 50000000
Simulation Instructions: 100000000
Number of CPUs: 1
Small page size: 4096
Large page size: 2097152

CPU 0 Bimodal branch predictor
Basic BTB sets: 1024 ways: 8 indirect buffer size: 4096 RAS size: 64
Instruction page size distrubution: 0
Loading instruction page size distribution from /home/bsc/bsc018186/scratch/itp_asplos25_AE/dump/srv459_ap.pdst
Data page size distrubution: 0
Loading data page size distribution from /home/bsc/bsc018186/scratch/itp_asplos25_AE/dump/srv459_ap.pdst
cpu0_L2C IP-based stride prefetcher
cpu0_L1D next line prefetcher
CHiRPing...
cpu0_L1I next line prefetcher
Off-chip DRAM Size: 4 GiB Channels: 1 Width: 64-bit Data Rate: 3200 MT/s
Heartbeat CPU 0 instructions: 10000002 cycles: 2500199 heartbeat IPC: 3.99969 cumulative IPC: 3.99969 (Simulation time: 0 hr 0 min 39 sec) 
Heartbeat CPU 0 instructions: 20000001 cycles: 5000205 heartbeat IPC: 4 cumulative IPC: 3.99984 (Simulation time: 0 hr 1 min 20 sec) 
Heartbeat CPU 0 instructions: 30000000 cycles: 7500218 heartbeat IPC: 3.99998 cumulative IPC: 3.99989 (Simulation time: 0 hr 2 min 0 sec) 
Heartbeat CPU 0 instructions: 40000001 cycles: 10000434 heartbeat IPC: 3.99966 cumulative IPC: 3.99983 (Simulation time: 0 hr 2 min 41 sec) 
Heartbeat CPU 0 instructions: 50000001 cycles: 12500434 heartbeat IPC: 4 cumulative IPC: 3.99987 (Simulation time: 0 hr 3 min 22 sec) 
Warmup finished CPU 0 instructions: 50000001 cycles: 12500435 cumulative IPC: 3.99987 (Simulation time: 0 hr 3 min 22 sec) 

Warmup complete CPU 0 instructions: 50000001 cycles: 12500435 (Simulation time: 0 hr 3 min 22 sec) 

Heartbeat CPU 0 instructions: 60000000 cycles: 28423374 heartbeat IPC: 0.628025 cumulative IPC: 0.628025 (Simulation time: 0 hr 4 min 28 sec) 
Heartbeat CPU 0 instructions: 70000000 cycles: 44178443 heartbeat IPC: 0.634717 cumulative IPC: 0.631353 (Simulation time: 0 hr 5 min 35 sec) 
Heartbeat CPU 0 instructions: 80000000 cycles: 59435730 heartbeat IPC: 0.655425 cumulative IPC: 0.639178 (Simulation time: 0 hr 6 min 41 sec) 
Heartbeat CPU 0 instructions: 90000001 cycles: 74966093 heartbeat IPC: 0.643901 cumulative IPC: 0.640352 (Simulation time: 0 hr 7 min 48 sec) 
Heartbeat CPU 0 instructions: 100000002 cycles: 90294066 heartbeat IPC: 0.652403 cumulative IPC: 0.642727 (Simulation time: 0 hr 8 min 56 sec) 
*** Reached end of trace: /gpfs/projects/bsc18/MN4/bsc18/romol/ChampSim/traces/qualcomm_srv/srv459_ap.champsimtrace.xz
Heartbeat CPU 0 instructions: 110000001 cycles: 105406506 heartbeat IPC: 0.661707 cumulative IPC: 0.645814 (Simulation time: 0 hr 10 min 1 sec) 
Heartbeat CPU 0 instructions: 120000002 cycles: 119920747 heartbeat IPC: 0.688979 cumulative IPC: 0.651646 (Simulation time: 0 hr 11 min 6 sec) 
Heartbeat CPU 0 instructions: 130000000 cycles: 135010973 heartbeat IPC: 0.662681 cumulative IPC: 0.653006 (Simulation time: 0 hr 12 min 12 sec) 
Heartbeat CPU 0 instructions: 140000002 cycles: 149872109 heartbeat IPC: 0.672897 cumulative IPC: 0.655157 (Simulation time: 0 hr 13 min 18 sec) 
Heartbeat CPU 0 instructions: 150000000 cycles: 165094424 heartbeat IPC: 0.656931 cumulative IPC: 0.655334 (Simulation time: 0 hr 14 min 24 sec) 
Simulation finished CPU 0 instructions: 100000003 cycles: 152593991 cumulative IPC: 0.655334 (Simulation time: 0 hr 14 min 24 sec) 

Simulation complete CPU 0 instructions: 100000003 cycles: 152593991 (Simulation time: 0 hr 14 min 24 sec) 


ChampSim completed all CPUs

Saving instructions large page distribution to /home/bsc/bsc018186/scratch/itp_asplos25_AE/dump/srv459_ap.pdst...
Saving data large page distribution to /home/bsc/bsc018186/scratch/itp_asplos25_AE/dump/srv459_ap.pdst...
=== Simulation ===
CPU 0 runs /gpfs/projects/bsc18/MN4/bsc18/romol/ChampSim/traces/qualcomm_srv/srv459_ap.champsimtrace.xz

Region of Interest Statistics

CPU 0 cumulative IPC: 0.655334 instructions: 100000003 cycles: 152593991
CPU 0 Branch Prediction Accuracy: 83.3738% MPKI: 29.7268 Average ROB Occupancy at Mispredict: 12.8811
Branch type MPKI
BRANCH_DIRECT_JUMP: 1.02552
BRANCH_INDIRECT: 15.3168
BRANCH_CONDITIONAL: 9.68338
BRANCH_DIRECT_CALL: 1.84683
BRANCH_INDIRECT_CALL: 0.51366
BRANCH_RETURN: 1.34066

Instructions large pages: 0
Instructions small pages: 995
Large page distribution for instructions: 0%

Data large pages: 0
Data small pages: 10329
Large page distribution for data: 0%

cpu0_L1I TOTAL       ACCESS:   34755213  HIT:   27015900  MISS:    7739313  iACCESS:   34755213  iHIT:   27015900  iMISS:    7739313  dACCESS:          0  dHIT:          0  dMISS:          0  itACCESS:          0  itHIT:          0  itMISS:          0  dtACCESS:          0  dtHIT:          0  dtMISS:          0
cpu0_L1I LOAD         ACCESS:   10233328  HIT:    8053209  MISS:    2180119  iACCESS:   10233328  iHIT:    8053209  iMISS:    2180119  dACCESS:          0  dHIT:          0  dMISS:          0  itACCESS:          0  itHIT:          0  itMISS:          0  dtACCESS:          0  dtHIT:          0  dtMISS:          0
cpu0_L1I RFO          ACCESS:          0  HIT:          0  MISS:          0  iACCESS:          0  iHIT:          0  iMISS:          0  dACCESS:          0  dHIT:          0  dMISS:          0  itACCESS:          0  itHIT:          0  itMISS:          0  dtACCESS:          0  dtHIT:          0  dtMISS:          0
cpu0_L1I PREFETCH     ACCESS:   24521885  HIT:   18962691  MISS:    5559194  iACCESS:   24521885  iHIT:   18962691  iMISS:    5559194  dACCESS:          0  dHIT:          0  dMISS:          0  itACCESS:          0  itHIT:          0  itMISS:          0  dtACCESS:          0  dtHIT:          0  dtMISS:          0
cpu0_L1I WRITE        ACCESS:          0  HIT:          0  MISS:          0  iACCESS:          0  iHIT:          0  iMISS:          0  dACCESS:          0  dHIT:          0  dMISS:          0  itACCESS:          0  itHIT:          0  itMISS:          0  dtACCESS:          0  dtHIT:          0  dtMISS:          0
cpu0_L1I TRANSLATION  ACCESS:          0  HIT:          0  MISS:          0  iACCESS:          0  iHIT:          0  iMISS:          0  dACCESS:          0  dHIT:          0  dMISS:          0  itACCESS:          0  itHIT:          0  itMISS:          0  dtACCESS:          0  dtHIT:          0  dtMISS:          0
cpu0_L1I PREFETCH  REQUESTED:   27122400  ISSUED:   27122400  CROSSED:          0  USEFUL:    1879672  USELESS:     623080
cpu0_L1I AVERAGE iMISS LATENCY: 12.9481 cycles
cpu0_L1I AVERAGE dMISS LATENCY: 0 cycles
cpu0_L1I AVERAGE itMISS LATENCY: 0 cycles
cpu0_L1I AVERAGE dtMISS LATENCY: 0 cycles
cpu0_L1I PAGE CROSSINGS (TLB HIT):         0 
cpu0_L1I PAGE CROSSINGS (TLB MISS):         0 
cpu0_L1I AVERAGE MISS LATENCY: 12.9481 cycles
cpu0_ITLB TOTAL       ACCESS:   29003231  HIT:   27030141  MISS:    1973090  iACCESS:   29003231  iHIT:   27030141  iMISS:    1973090  dACCESS:          0  dHIT:          0  dMISS:          0  itACCESS:          0  itHIT:          0  itMISS:          0  dtACCESS:          0  dtHIT:          0  dtMISS:          0
cpu0_ITLB LOAD         ACCESS:   29003231  HIT:   27030141  MISS:    1973090  iACCESS:   29003231  iHIT:   27030141  iMISS:    1973090  dACCESS:          0  dHIT:          0  dMISS:          0  itACCESS:          0  itHIT:          0  itMISS:          0  dtACCESS:          0  dtHIT:          0  dtMISS:          0
cpu0_ITLB RFO          ACCESS:          0  HIT:          0  MISS:          0  iACCESS:          0  iHIT:          0  iMISS:          0  dACCESS:          0  dHIT:          0  dMISS:          0  itACCESS:          0  itHIT:          0  itMISS:          0  dtACCESS:          0  dtHIT:          0  dtMISS:          0
cpu0_ITLB PREFETCH     ACCESS:          0  HIT:          0  MISS:          0  iACCESS:          0  iHIT:          0  iMISS:          0  dACCESS:          0  dHIT:          0  dMISS:          0  itACCESS:          0  itHIT:          0  itMISS:          0  dtACCESS:          0  dtHIT:          0  dtMISS:          0
cpu0_ITLB WRITE        ACCESS:          0  HIT:          0  MISS:          0  iACCESS:          0  iHIT:          0  iMISS:          0  dACCESS:          0  dHIT:          0  dMISS:          0  itACCESS:          0  itHIT:          0  itMISS:          0  dtACCESS:          0  dtHIT:          0  dtMISS:          0
cpu0_ITLB TRANSLATION  ACCESS:          0  HIT:          0  MISS:          0  iACCESS:          0  iHIT:          0  iMISS:          0  dACCESS:          0  dHIT:          0  dMISS:          0  itACCESS:          0  itHIT:          0  itMISS:          0  dtACCESS:          0  dtHIT:          0  dtMISS:          0
cpu0_ITLB PREFETCH  REQUESTED:          0  ISSUED:          0  CROSSED:          0  USEFUL:     319513  USELESS:      66599
cpu0_ITLB AVERAGE iMISS LATENCY: 5.11701 cycles
cpu0_ITLB AVERAGE dMISS LATENCY: 0 cycles
cpu0_ITLB AVERAGE itMISS LATENCY: 0 cycles
cpu0_ITLB AVERAGE dtMISS LATENCY: 0 cycles
cpu0_ITLB PAGE CROSSINGS (TLB HIT):         0 
cpu0_ITLB PAGE CROSSINGS (TLB MISS):         0 
cpu0_ITLB AVERAGE MISS LATENCY: 5.11701 cycles
cpu0_DTLB TOTAL       ACCESS:   27667980  HIT:   25731147  MISS:    1936833  iACCESS:          0  iHIT:          0  iMISS:          0  dACCESS:   27667980  dHIT:   25731147  dMISS:    1936833  itACCESS:          0  itHIT:          0  itMISS:          0  dtACCESS:          0  dtHIT:          0  dtMISS:          0
cpu0_DTLB LOAD         ACCESS:   27667980  HIT:   25731147  MISS:    1936833  iACCESS:          0  iHIT:          0  iMISS:          0  dACCESS:   27667980  dHIT:   25731147  dMISS:    1936833  itACCESS:          0  itHIT:          0  itMISS:          0  dtACCESS:          0  dtHIT:          0  dtMISS:          0
cpu0_DTLB RFO          ACCESS:          0  HIT:          0  MISS:          0  iACCESS:          0  iHIT:          0  iMISS:          0  dACCESS:          0  dHIT:          0  dMISS:          0  itACCESS:          0  itHIT:          0  itMISS:          0  dtACCESS:          0  dtHIT:          0  dtMISS:          0
cpu0_DTLB PREFETCH     ACCESS:          0  HIT:          0  MISS:          0  iACCESS:          0  iHIT:          0  iMISS:          0  dACCESS:          0  dHIT:          0  dMISS:          0  itACCESS:          0  itHIT:          0  itMISS:          0  dtACCESS:          0  dtHIT:          0  dtMISS:          0
cpu0_DTLB WRITE        ACCESS:          0  HIT:          0  MISS:          0  iACCESS:          0  iHIT:          0  iMISS:          0  dACCESS:          0  dHIT:          0  dMISS:          0  itACCESS:          0  itHIT:          0  itMISS:          0  dtACCESS:          0  dtHIT:          0  dtMISS:          0
cpu0_DTLB TRANSLATION  ACCESS:          0  HIT:          0  MISS:          0  iACCESS:          0  iHIT:          0  iMISS:          0  dACCESS:          0  dHIT:          0  dMISS:          0  itACCESS:          0  itHIT:          0  itMISS:          0  dtACCESS:          0  dtHIT:          0  dtMISS:          0
cpu0_DTLB PREFETCH  REQUESTED:          0  ISSUED:          0  CROSSED:          0  USEFUL:          0  USELESS:          0
cpu0_DTLB AVERAGE iMISS LATENCY: 0 cycles
cpu0_DTLB AVERAGE dMISS LATENCY: 15.1203 cycles
cpu0_DTLB AVERAGE itMISS LATENCY: 0 cycles
cpu0_DTLB AVERAGE dtMISS LATENCY: 0 cycles
cpu0_DTLB PAGE CROSSINGS (TLB HIT):         0 
cpu0_DTLB PAGE CROSSINGS (TLB MISS):         0 
cpu0_DTLB AVERAGE MISS LATENCY: 15.1203 cycles
cpu0_STLB TOTAL       ACCESS:    1536317  HIT:    1362649  MISS:     173668  iACCESS:     386119  iHIT:     323037  iMISS:      63082  dACCESS:    1150198  dHIT:    1039612  dMISS:     110586  itACCESS:          0  itHIT:          0  itMISS:          0  dtACCESS:          0  dtHIT:          0  dtMISS:          0
cpu0_STLB LOAD         ACCESS:    1536317  HIT:    1362649  MISS:     173668  iACCESS:     386119  iHIT:     323037  iMISS:      63082  dACCESS:    1150198  dHIT:    1039612  dMISS:     110586  itACCESS:          0  itHIT:          0  itMISS:          0  dtACCESS:          0  dtHIT:          0  dtMISS:          0
cpu0_STLB RFO          ACCESS:          0  HIT:          0  MISS:          0  iACCESS:          0  iHIT:          0  iMISS:          0  dACCESS:          0  dHIT:          0  dMISS:          0  itACCESS:          0  itHIT:          0  itMISS:          0  dtACCESS:          0  dtHIT:          0  dtMISS:          0
cpu0_STLB PREFETCH     ACCESS:          0  HIT:          0  MISS:          0  iACCESS:          0  iHIT:          0  iMISS:          0  dACCESS:          0  dHIT:          0  dMISS:          0  itACCESS:          0  itHIT:          0  itMISS:          0  dtACCESS:          0  dtHIT:          0  dtMISS:          0
cpu0_STLB WRITE        ACCESS:          0  HIT:          0  MISS:          0  iACCESS:          0  iHIT:          0  iMISS:          0  dACCESS:          0  dHIT:          0  dMISS:          0  itACCESS:          0  itHIT:          0  itMISS:          0  dtACCESS:          0  dtHIT:          0  dtMISS:          0
cpu0_STLB TRANSLATION  ACCESS:          0  HIT:          0  MISS:          0  iACCESS:          0  iHIT:          0  iMISS:          0  dACCESS:          0  dHIT:          0  dMISS:          0  itACCESS:          0  itHIT:          0  itMISS:          0  dtACCESS:          0  dtHIT:          0  dtMISS:          0
cpu0_STLB PREFETCH  REQUESTED:          0  ISSUED:          0  CROSSED:          0  USEFUL:          0  USELESS:          0
cpu0_STLB AVERAGE iMISS LATENCY: 40.5258 cycles
cpu0_STLB AVERAGE dMISS LATENCY: 115.767 cycles
cpu0_STLB AVERAGE itMISS LATENCY: 0 cycles
cpu0_STLB AVERAGE dtMISS LATENCY: 0 cycles
cpu0_STLB PAGE CROSSINGS (TLB HIT):         0 
cpu0_STLB PAGE CROSSINGS (TLB MISS):         0 
cpu0_STLB AVERAGE MISS LATENCY: 156.293 cycles
cpu0_L1D TOTAL       ACCESS:   41349230  HIT:   37936170  MISS:    3413060  iACCESS:          0  iHIT:          0  iMISS:          0  dACCESS:   41116429  dHIT:   37915035  dMISS:    3201394  itACCESS:      68642  itHIT:      10189  itMISS:      58453  dtACCESS:     164159  dtHIT:      10946  dtMISS:     153213
cpu0_L1D LOAD         ACCESS:   18902780  HIT:   17443758  MISS:    1459022  iACCESS:          0  iHIT:          0  iMISS:          0  dACCESS:   18902780  dHIT:   17443758  dMISS:    1459022  itACCESS:          0  itHIT:          0  itMISS:          0  dtACCESS:          0  dtHIT:          0  dtMISS:          0
cpu0_L1D RFO          ACCESS:          0  HIT:          0  MISS:          0  iACCESS:          0  iHIT:          0  iMISS:          0  dACCESS:          0  dHIT:          0  dMISS:          0  itACCESS:          0  itHIT:          0  itMISS:          0  dtACCESS:          0  dtHIT:          0  dtMISS:          0
cpu0_L1D PREFETCH     ACCESS:   12043016  HIT:   10730905  MISS:    1312111  iACCESS:          0  iHIT:          0  iMISS:          0  dACCESS:   12043016  dHIT:   10730905  dMISS:    1312111  itACCESS:          0  itHIT:          0  itMISS:          0  dtACCESS:          0  dtHIT:          0  dtMISS:          0
cpu0_L1D WRITE        ACCESS:   10170633  HIT:    9740372  MISS:     430261  iACCESS:          0  iHIT:          0  iMISS:          0  dACCESS:   10170633  dHIT:    9740372  dMISS:     430261  itACCESS:          0  itHIT:          0  itMISS:          0  dtACCESS:          0  dtHIT:          0  dtMISS:          0
cpu0_L1D TRANSLATION  ACCESS:     232801  HIT:      21135  MISS:     211666  iACCESS:          0  iHIT:          0  iMISS:          0  dACCESS:          0  dHIT:          0  dMISS:          0  itACCESS:      68642  itHIT:      10189  itMISS:      58453  dtACCESS:     164159  dtHIT:      10946  dtMISS:     153213
cpu0_L1D PREFETCH  REQUESTED:   18902780  ISSUED:   16873556  CROSSED:          0  USEFUL:     304623  USELESS:     694428
cpu0_L1D AVERAGE iMISS LATENCY: 0 cycles
cpu0_L1D AVERAGE dMISS LATENCY: 33.2093 cycles
cpu0_L1D AVERAGE itMISS LATENCY: 1.90058 cycles
cpu0_L1D AVERAGE dtMISS LATENCY: 5.14209 cycles
cpu0_L1D PAGE CROSSINGS (TLB HIT):         0 
cpu0_L1D PAGE CROSSINGS (TLB MISS):         0 
cpu0_L1D AVERAGE MISS LATENCY: 40.252 cycles
cpu0_L2C TOTAL       ACCESS:    6886348  HIT:    4002870  MISS:    2883478  iACCESS:    3259345  iHIT:    2187174  iMISS:    1072171  dACCESS:    3422494  dHIT:    1784278  dMISS:    1638216  itACCESS:      58453  itHIT:      10910  itMISS:      47543  dtACCESS:     146056  dtHIT:      20508  dtMISS:     125548
cpu0_L2C LOAD         ACCESS:    1711893  HIT:    1024975  MISS:     686918  iACCESS:     790773  iHIT:     552852  iMISS:     237921  dACCESS:     921120  dHIT:     472123  dMISS:     448997  itACCESS:          0  itHIT:          0  itMISS:          0  dtACCESS:          0  dtHIT:          0  dtMISS:          0
cpu0_L2C RFO          ACCESS:     155818  HIT:      72758  MISS:      83060  iACCESS:          0  iHIT:          0  iMISS:          0  dACCESS:     155818  dHIT:      72758  dMISS:      83060  itACCESS:          0  itHIT:          0  itMISS:          0  dtACCESS:          0  dtHIT:          0  dtMISS:          0
cpu0_L2C PREFETCH     ACCESS:    4529705  HIT:    2590352  MISS:    1939353  iACCESS:    2468572  iHIT:    1634322  iMISS:     834250  dACCESS:    2061133  dHIT:     956030  dMISS:    1105103  itACCESS:          0  itHIT:          0  itMISS:          0  dtACCESS:          0  dtHIT:          0  dtMISS:          0
cpu0_L2C WRITE        ACCESS:     284423  HIT:     283367  MISS:       1056  iACCESS:          0  iHIT:          0  iMISS:          0  dACCESS:     284423  dHIT:     283367  dMISS:       1056  itACCESS:          0  itHIT:          0  itMISS:          0  dtACCESS:          0  dtHIT:          0  dtMISS:          0
cpu0_L2C TRANSLATION  ACCESS:     204509  HIT:      31418  MISS:     173091  iACCESS:          0  iHIT:          0  iMISS:          0  dACCESS:          0  dHIT:          0  dMISS:          0  itACCESS:      58453  itHIT:      10910  itMISS:      47543  dtACCESS:     146056  dtHIT:      20508  dtMISS:     125548
cpu0_L2C PREFETCH  REQUESTED:    1307062  ISSUED:    1307062  CROSSED:          0  USEFUL:     305130  USELESS:     223134
cpu0_L2C AVERAGE iMISS LATENCY: 24.7547 cycles
cpu0_L2C AVERAGE dMISS LATENCY: 46.0692 cycles
cpu0_L2C AVERAGE itMISS LATENCY: 2.05022 cycles
cpu0_L2C AVERAGE dtMISS LATENCY: 5.58315 cycles
cpu0_L2C PAGE CROSSINGS (TLB HIT):         0 
cpu0_L2C PAGE CROSSINGS (TLB MISS):         0 
cpu0_L2C AVERAGE MISS LATENCY: 78.4572 cycles
LLC TOTAL       ACCESS:    2916393  HIT:    1817837  MISS:    1098556  iACCESS:    1020405  iHIT:     668938  iMISS:     351467  dACCESS:    1722897  dHIT:    1081516  dMISS:     641381  itACCESS:      47543  itHIT:      18339  itMISS:      29204  dtACCESS:     125548  dtHIT:      49044  dtMISS:      76504
LLC LOAD         ACCESS:     685607  HIT:     443168  MISS:     242439  iACCESS:     237020  iHIT:     158950  iMISS:      78070  dACCESS:     448587  dHIT:     284218  dMISS:     164369  itACCESS:          0  itHIT:          0  itMISS:          0  dtACCESS:          0  dtHIT:          0  dtMISS:          0
LLC RFO          ACCESS:      83057  HIT:      42501  MISS:      40556  iACCESS:          0  iHIT:          0  iMISS:          0  dACCESS:      83057  dHIT:      42501  dMISS:      40556  itACCESS:          0  itHIT:          0  itMISS:          0  dtACCESS:          0  dtHIT:          0  dtMISS:          0
LLC PREFETCH     ACCESS:    1836328  HIT:    1132591  MISS:     703737  iACCESS:     783385  iHIT:     509988  iMISS:     273397  dACCESS:    1052943  dHIT:     622603  dMISS:     430340  itACCESS:          0  itHIT:          0  itMISS:          0  dtACCESS:          0  dtHIT:          0  dtMISS:          0
LLC WRITE        ACCESS:     138310  HIT:     132194  MISS:       6116  iACCESS:          0  iHIT:          0  iMISS:          0  dACCESS:     138310  dHIT:     132194  dMISS:       6116  itACCESS:          0  itHIT:          0  itMISS:          0  dtACCESS:          0  dtHIT:          0  dtMISS:          0
LLC TRANSLATION  ACCESS:     173091  HIT:      67383  MISS:     105708  iACCESS:          0  iHIT:          0  iMISS:          0  dACCESS:          0  dHIT:          0  dMISS:          0  itACCESS:      47543  itHIT:      18339  itMISS:      29204  dtACCESS:     125548  dtHIT:      49044  dtMISS:      76504
LLC PREFETCH  REQUESTED:          0  ISSUED:          0  CROSSED:          0  USEFUL:          0  USELESS:          0
LLC AVERAGE iMISS LATENCY: 46.9184 cycles
LLC AVERAGE dMISS LATENCY: 92.9626 cycles
LLC AVERAGE itMISS LATENCY: 4.5342 cycles
LLC AVERAGE dtMISS LATENCY: 12.4199 cycles
LLC PAGE CROSSINGS (TLB HIT):         0 
LLC PAGE CROSSINGS (TLB MISS):         0 
LLC AVERAGE MISS LATENCY: 156.835 cycles

PageTableWalker TOTAL       ACCESS:      85917  
PageTableWalker AVERAGE LATENCY: 5.19994 cycles
PageTableWalker TOTAL LATENCY: 446763 cycles

DRAM Statistics
Channel 0
 RQ ROW_BUFFER_HIT:     289211
  ROW_BUFFER_MISS:     803156
 AVG DBUS CONGESTED CYCLE:    3.61798
 WQ ROW_BUFFER_HIT:      22943
  ROW_BUFFER_MISS:      21791  FULL:          0

