last_page:0x200000000000000
VMEM_RES_CAP:0x100000
PAGE_SIZE:4096
LOG2_PAGE_SIZE:12
LOG2_PAGE_TABLE_SIZE:9
page_table_levels:5
WARNING: physical memory size is smaller than virtual memory size
FDiP enabled with aggresivity 16

*** ChampSim Multicore Out-of-Order Simulator ***

Warmup Instructions: 50000000
Simulation Instructions: 100000000
Number of CPUs: 1
Small page size: 4096
Large page size: 2097152

CPU 0 Bimodal branch predictor
Basic BTB sets: 1024 ways: 8 indirect buffer size: 4096 RAS size: 64
Instruction page size distrubution: 0
Loading instruction page size distribution from /home/bsc/bsc018186/scratch/itp_asplos25_AE/dump/srv486_ap.pdst
Data page size distrubution: 0
Loading data page size distribution from /home/bsc/bsc018186/scratch/itp_asplos25_AE/dump/srv486_ap.pdst
cpu0_L2C IP-based stride prefetcher
cpu0_L1D next line prefetcher
CHiRPing...
cpu0_L1I next line prefetcher
Off-chip DRAM Size: 4 GiB Channels: 1 Width: 64-bit Data Rate: 3200 MT/s
Heartbeat CPU 0 instructions: 10000001 cycles: 2500297 heartbeat IPC: 3.99953 cumulative IPC: 3.99953 (Simulation time: 0 hr 0 min 39 sec) 
Heartbeat CPU 0 instructions: 20000003 cycles: 5000462 heartbeat IPC: 3.99974 cumulative IPC: 3.99964 (Simulation time: 0 hr 1 min 20 sec) 
Heartbeat CPU 0 instructions: 30000001 cycles: 7516595 heartbeat IPC: 3.97436 cumulative IPC: 3.99117 (Simulation time: 0 hr 2 min 1 sec) 
Heartbeat CPU 0 instructions: 40000001 cycles: 10016601 heartbeat IPC: 4 cumulative IPC: 3.99338 (Simulation time: 0 hr 2 min 42 sec) 
Heartbeat CPU 0 instructions: 50000001 cycles: 12516649 heartbeat IPC: 3.99993 cumulative IPC: 3.99468 (Simulation time: 0 hr 3 min 24 sec) 
Warmup finished CPU 0 instructions: 50000001 cycles: 12516650 cumulative IPC: 3.99468 (Simulation time: 0 hr 3 min 24 sec) 

Warmup complete CPU 0 instructions: 50000001 cycles: 12516650 (Simulation time: 0 hr 3 min 24 sec) 

Heartbeat CPU 0 instructions: 60000000 cycles: 19677176 heartbeat IPC: 1.39655 cumulative IPC: 1.39655 (Simulation time: 0 hr 4 min 23 sec) 
Heartbeat CPU 0 instructions: 70000000 cycles: 34122133 heartbeat IPC: 0.692284 cumulative IPC: 0.925691 (Simulation time: 0 hr 5 min 28 sec) 
Heartbeat CPU 0 instructions: 80000003 cycles: 48372245 heartbeat IPC: 0.70175 cumulative IPC: 0.83669 (Simulation time: 0 hr 6 min 33 sec) 
Heartbeat CPU 0 instructions: 90000001 cycles: 63417492 heartbeat IPC: 0.664662 cumulative IPC: 0.785842 (Simulation time: 0 hr 7 min 39 sec) 
Heartbeat CPU 0 instructions: 100000004 cycles: 77623850 heartbeat IPC: 0.703911 cumulative IPC: 0.767965 (Simulation time: 0 hr 8 min 44 sec) 
*** Reached end of trace: /gpfs/projects/bsc18/MN4/bsc18/romol/ChampSim/traces/qualcomm_srv/srv486_ap.champsimtrace.xz
Heartbeat CPU 0 instructions: 110000002 cycles: 91545908 heartbeat IPC: 0.718285 cumulative IPC: 0.759213 (Simulation time: 0 hr 9 min 49 sec) 
Heartbeat CPU 0 instructions: 120000004 cycles: 105331318 heartbeat IPC: 0.725405 cumulative IPC: 0.754192 (Simulation time: 0 hr 10 min 53 sec) 
Heartbeat CPU 0 instructions: 130000000 cycles: 121566549 heartbeat IPC: 0.615945 cumulative IPC: 0.73361 (Simulation time: 0 hr 12 min 0 sec) 
Heartbeat CPU 0 instructions: 140000001 cycles: 135979692 heartbeat IPC: 0.693812 cumulative IPC: 0.728964 (Simulation time: 0 hr 13 min 6 sec) 
Heartbeat CPU 0 instructions: 150000003 cycles: 149898161 heartbeat IPC: 0.71847 cumulative IPC: 0.727901 (Simulation time: 0 hr 14 min 11 sec) 
Simulation finished CPU 0 instructions: 100000002 cycles: 137381512 cumulative IPC: 0.7279 (Simulation time: 0 hr 14 min 11 sec) 

Simulation complete CPU 0 instructions: 100000002 cycles: 137381512 (Simulation time: 0 hr 14 min 11 sec) 


ChampSim completed all CPUs

Saving instructions large page distribution to /home/bsc/bsc018186/scratch/itp_asplos25_AE/dump/srv486_ap.pdst...
Saving data large page distribution to /home/bsc/bsc018186/scratch/itp_asplos25_AE/dump/srv486_ap.pdst...
=== Simulation ===
CPU 0 runs /gpfs/projects/bsc18/MN4/bsc18/romol/ChampSim/traces/qualcomm_srv/srv486_ap.champsimtrace.xz

Region of Interest Statistics

CPU 0 cumulative IPC: 0.7279 instructions: 100000002 cycles: 137381512
CPU 0 Branch Prediction Accuracy: 85.0579% MPKI: 28.6718 Average ROB Occupancy at Mispredict: 14.0498
Branch type MPKI
BRANCH_DIRECT_JUMP: 0.93948
BRANCH_INDIRECT: 14.9905
BRANCH_CONDITIONAL: 9.28665
BRANCH_DIRECT_CALL: 1.69553
BRANCH_INDIRECT_CALL: 0.54119
BRANCH_RETURN: 1.21849

Instructions large pages: 0
Instructions small pages: 10903
Large page distribution for instructions: 0%

Data large pages: 0
Data small pages: 9814
Large page distribution for data: 0%

cpu0_L1I TOTAL       ACCESS:   34777726  HIT:   27267956  MISS:    7509770  iACCESS:   34777726  iHIT:   27267956  iMISS:    7509770  dACCESS:          0  dHIT:          0  dMISS:          0  itACCESS:          0  itHIT:          0  itMISS:          0  dtACCESS:          0  dtHIT:          0  dtMISS:          0
cpu0_L1I LOAD         ACCESS:    9404441  HIT:    7304970  MISS:    2099471  iACCESS:    9404441  iHIT:    7304970  iMISS:    2099471  dACCESS:          0  dHIT:          0  dMISS:          0  itACCESS:          0  itHIT:          0  itMISS:          0  dtACCESS:          0  dtHIT:          0  dtMISS:          0
cpu0_L1I RFO          ACCESS:          0  HIT:          0  MISS:          0  iACCESS:          0  iHIT:          0  iMISS:          0  dACCESS:          0  dHIT:          0  dMISS:          0  itACCESS:          0  itHIT:          0  itMISS:          0  dtACCESS:          0  dtHIT:          0  dtMISS:          0
cpu0_L1I PREFETCH     ACCESS:   25373285  HIT:   19962986  MISS:    5410299  iACCESS:   25373285  iHIT:   19962986  iMISS:    5410299  dACCESS:          0  dHIT:          0  dMISS:          0  itACCESS:          0  itHIT:          0  itMISS:          0  dtACCESS:          0  dtHIT:          0  dtMISS:          0
cpu0_L1I WRITE        ACCESS:          0  HIT:          0  MISS:          0  iACCESS:          0  iHIT:          0  iMISS:          0  dACCESS:          0  dHIT:          0  dMISS:          0  itACCESS:          0  itHIT:          0  itMISS:          0  dtACCESS:          0  dtHIT:          0  dtMISS:          0
cpu0_L1I TRANSLATION  ACCESS:          0  HIT:          0  MISS:          0  iACCESS:          0  iHIT:          0  iMISS:          0  dACCESS:          0  dHIT:          0  dMISS:          0  itACCESS:          0  itHIT:          0  itMISS:          0  dtACCESS:          0  dtHIT:          0  dtMISS:          0
cpu0_L1I PREFETCH  REQUESTED:   27421769  ISSUED:   27419186  CROSSED:          0  USEFUL:    1734170  USELESS:     563299
cpu0_L1I AVERAGE iMISS LATENCY: 13.7772 cycles
cpu0_L1I AVERAGE dMISS LATENCY: 0 cycles
cpu0_L1I AVERAGE itMISS LATENCY: 0 cycles
cpu0_L1I AVERAGE dtMISS LATENCY: 0 cycles
cpu0_L1I PAGE CROSSINGS (TLB HIT):         0 
cpu0_L1I PAGE CROSSINGS (TLB MISS):         0 
cpu0_L1I AVERAGE MISS LATENCY: 13.7772 cycles
cpu0_ITLB TOTAL       ACCESS:   28870262  HIT:   27148094  MISS:    1722168  iACCESS:   28870262  iHIT:   27148094  iMISS:    1722168  dACCESS:          0  dHIT:          0  dMISS:          0  itACCESS:          0  itHIT:          0  itMISS:          0  dtACCESS:          0  dtHIT:          0  dtMISS:          0
cpu0_ITLB LOAD         ACCESS:   28870262  HIT:   27148094  MISS:    1722168  iACCESS:   28870262  iHIT:   27148094  iMISS:    1722168  dACCESS:          0  dHIT:          0  dMISS:          0  itACCESS:          0  itHIT:          0  itMISS:          0  dtACCESS:          0  dtHIT:          0  dtMISS:          0
cpu0_ITLB RFO          ACCESS:          0  HIT:          0  MISS:          0  iACCESS:          0  iHIT:          0  iMISS:          0  dACCESS:          0  dHIT:          0  dMISS:          0  itACCESS:          0  itHIT:          0  itMISS:          0  dtACCESS:          0  dtHIT:          0  dtMISS:          0
cpu0_ITLB PREFETCH     ACCESS:          0  HIT:          0  MISS:          0  iACCESS:          0  iHIT:          0  iMISS:          0  dACCESS:          0  dHIT:          0  dMISS:          0  itACCESS:          0  itHIT:          0  itMISS:          0  dtACCESS:          0  dtHIT:          0  dtMISS:          0
cpu0_ITLB WRITE        ACCESS:          0  HIT:          0  MISS:          0  iACCESS:          0  iHIT:          0  iMISS:          0  dACCESS:          0  dHIT:          0  dMISS:          0  itACCESS:          0  itHIT:          0  itMISS:          0  dtACCESS:          0  dtHIT:          0  dtMISS:          0
cpu0_ITLB TRANSLATION  ACCESS:          0  HIT:          0  MISS:          0  iACCESS:          0  iHIT:          0  iMISS:          0  dACCESS:          0  dHIT:          0  dMISS:          0  itACCESS:          0  itHIT:          0  itMISS:          0  dtACCESS:          0  dtHIT:          0  dtMISS:          0
cpu0_ITLB PREFETCH  REQUESTED:          0  ISSUED:          0  CROSSED:          0  USEFUL:     283390  USELESS:      57088
cpu0_ITLB AVERAGE iMISS LATENCY: 3.27152 cycles
cpu0_ITLB AVERAGE dMISS LATENCY: 0 cycles
cpu0_ITLB AVERAGE itMISS LATENCY: 0 cycles
cpu0_ITLB AVERAGE dtMISS LATENCY: 0 cycles
cpu0_ITLB PAGE CROSSINGS (TLB HIT):         0 
cpu0_ITLB PAGE CROSSINGS (TLB MISS):         0 
cpu0_ITLB AVERAGE MISS LATENCY: 3.27152 cycles
cpu0_DTLB TOTAL       ACCESS:   29597776  HIT:   25469800  MISS:    4127976  iACCESS:          0  iHIT:          0  iMISS:          0  dACCESS:   29597776  dHIT:   25469800  dMISS:    4127976  itACCESS:          0  itHIT:          0  itMISS:          0  dtACCESS:          0  dtHIT:          0  dtMISS:          0
cpu0_DTLB LOAD         ACCESS:   29597776  HIT:   25469800  MISS:    4127976  iACCESS:          0  iHIT:          0  iMISS:          0  dACCESS:   29597776  dHIT:   25469800  dMISS:    4127976  itACCESS:          0  itHIT:          0  itMISS:          0  dtACCESS:          0  dtHIT:          0  dtMISS:          0
cpu0_DTLB RFO          ACCESS:          0  HIT:          0  MISS:          0  iACCESS:          0  iHIT:          0  iMISS:          0  dACCESS:          0  dHIT:          0  dMISS:          0  itACCESS:          0  itHIT:          0  itMISS:          0  dtACCESS:          0  dtHIT:          0  dtMISS:          0
cpu0_DTLB PREFETCH     ACCESS:          0  HIT:          0  MISS:          0  iACCESS:          0  iHIT:          0  iMISS:          0  dACCESS:          0  dHIT:          0  dMISS:          0  itACCESS:          0  itHIT:          0  itMISS:          0  dtACCESS:          0  dtHIT:          0  dtMISS:          0
cpu0_DTLB WRITE        ACCESS:          0  HIT:          0  MISS:          0  iACCESS:          0  iHIT:          0  iMISS:          0  dACCESS:          0  dHIT:          0  dMISS:          0  itACCESS:          0  itHIT:          0  itMISS:          0  dtACCESS:          0  dtHIT:          0  dtMISS:          0
cpu0_DTLB TRANSLATION  ACCESS:          0  HIT:          0  MISS:          0  iACCESS:          0  iHIT:          0  iMISS:          0  dACCESS:          0  dHIT:          0  dMISS:          0  itACCESS:          0  itHIT:          0  itMISS:          0  dtACCESS:          0  dtHIT:          0  dtMISS:          0
cpu0_DTLB PREFETCH  REQUESTED:          0  ISSUED:          0  CROSSED:          0  USEFUL:          0  USELESS:          0
cpu0_DTLB AVERAGE iMISS LATENCY: 0 cycles
cpu0_DTLB AVERAGE dMISS LATENCY: 6.76738 cycles
cpu0_DTLB AVERAGE itMISS LATENCY: 0 cycles
cpu0_DTLB AVERAGE dtMISS LATENCY: 0 cycles
cpu0_DTLB PAGE CROSSINGS (TLB HIT):         0 
cpu0_DTLB PAGE CROSSINGS (TLB MISS):         0 
cpu0_DTLB AVERAGE MISS LATENCY: 6.76738 cycles
cpu0_STLB TOTAL       ACCESS:    2534731  HIT:    2382977  MISS:     151754  iACCESS:     340496  iHIT:     287523  iMISS:      52973  dACCESS:    2194235  dHIT:    2095454  dMISS:      98781  itACCESS:          0  itHIT:          0  itMISS:          0  dtACCESS:          0  dtHIT:          0  dtMISS:          0
cpu0_STLB LOAD         ACCESS:    2534731  HIT:    2382977  MISS:     151754  iACCESS:     340496  iHIT:     287523  iMISS:      52973  dACCESS:    2194235  dHIT:    2095454  dMISS:      98781  itACCESS:          0  itHIT:          0  itMISS:          0  dtACCESS:          0  dtHIT:          0  dtMISS:          0
cpu0_STLB RFO          ACCESS:          0  HIT:          0  MISS:          0  iACCESS:          0  iHIT:          0  iMISS:          0  dACCESS:          0  dHIT:          0  dMISS:          0  itACCESS:          0  itHIT:          0  itMISS:          0  dtACCESS:          0  dtHIT:          0  dtMISS:          0
cpu0_STLB PREFETCH     ACCESS:          0  HIT:          0  MISS:          0  iACCESS:          0  iHIT:          0  iMISS:          0  dACCESS:          0  dHIT:          0  dMISS:          0  itACCESS:          0  itHIT:          0  itMISS:          0  dtACCESS:          0  dtHIT:          0  dtMISS:          0
cpu0_STLB WRITE        ACCESS:          0  HIT:          0  MISS:          0  iACCESS:          0  iHIT:          0  iMISS:          0  dACCESS:          0  dHIT:          0  dMISS:          0  itACCESS:          0  itHIT:          0  itMISS:          0  dtACCESS:          0  dtHIT:          0  dtMISS:          0
cpu0_STLB TRANSLATION  ACCESS:          0  HIT:          0  MISS:          0  iACCESS:          0  iHIT:          0  iMISS:          0  dACCESS:          0  dHIT:          0  dMISS:          0  itACCESS:          0  itHIT:          0  itMISS:          0  dtACCESS:          0  dtHIT:          0  dtMISS:          0
cpu0_STLB PREFETCH  REQUESTED:          0  ISSUED:          0  CROSSED:          0  USEFUL:          0  USELESS:          0
cpu0_STLB AVERAGE iMISS LATENCY: 19.4107 cycles
cpu0_STLB AVERAGE dMISS LATENCY: 67.4728 cycles
cpu0_STLB AVERAGE itMISS LATENCY: 0 cycles
cpu0_STLB AVERAGE dtMISS LATENCY: 0 cycles
cpu0_STLB PAGE CROSSINGS (TLB HIT):         0 
cpu0_STLB PAGE CROSSINGS (TLB MISS):         0 
cpu0_STLB AVERAGE MISS LATENCY: 86.8834 cycles
cpu0_L1D TOTAL       ACCESS:   44942721  HIT:   38689963  MISS:    6252758  iACCESS:          0  iHIT:          0  iMISS:          0  dACCESS:   44736629  dHIT:   38671251  dMISS:    6065378  itACCESS:      57280  itHIT:       8447  itMISS:      48833  dtACCESS:     148812  dtHIT:      10265  dtMISS:     138547
cpu0_L1D LOAD         ACCESS:   21596777  HIT:   18156873  MISS:    3439904  iACCESS:          0  iHIT:          0  iMISS:          0  dACCESS:   21596777  dHIT:   18156873  dMISS:    3439904  itACCESS:          0  itHIT:          0  itMISS:          0  dtACCESS:          0  dtHIT:          0  dtMISS:          0
cpu0_L1D RFO          ACCESS:          0  HIT:          0  MISS:          0  iACCESS:          0  iHIT:          0  iMISS:          0  dACCESS:          0  dHIT:          0  dMISS:          0  itACCESS:          0  itHIT:          0  itMISS:          0  dtACCESS:          0  dtHIT:          0  dtMISS:          0
cpu0_L1D PREFETCH     ACCESS:   13078545  HIT:   11089822  MISS:    1988723  iACCESS:          0  iHIT:          0  iMISS:          0  dACCESS:   13078545  dHIT:   11089822  dMISS:    1988723  itACCESS:          0  itHIT:          0  itMISS:          0  dtACCESS:          0  dtHIT:          0  dtMISS:          0
cpu0_L1D WRITE        ACCESS:   10061307  HIT:    9424556  MISS:     636751  iACCESS:          0  iHIT:          0  iMISS:          0  dACCESS:   10061307  dHIT:    9424556  dMISS:     636751  itACCESS:          0  itHIT:          0  itMISS:          0  dtACCESS:          0  dtHIT:          0  dtMISS:          0
cpu0_L1D TRANSLATION  ACCESS:     206092  HIT:      18712  MISS:     187380  iACCESS:          0  iHIT:          0  iMISS:          0  dACCESS:          0  dHIT:          0  dMISS:          0  itACCESS:      57280  itHIT:       8447  itMISS:      48833  dtACCESS:     148812  dtHIT:      10265  dtMISS:     138547
cpu0_L1D PREFETCH  REQUESTED:   21596777  ISSUED:   17276179  CROSSED:          0  USEFUL:     274175  USELESS:     787564
cpu0_L1D AVERAGE iMISS LATENCY: 0 cycles
cpu0_L1D AVERAGE dMISS LATENCY: 23.0556 cycles
cpu0_L1D AVERAGE itMISS LATENCY: 0.394398 cycles
cpu0_L1D AVERAGE dtMISS LATENCY: 1.28781 cycles
cpu0_L1D PAGE CROSSINGS (TLB HIT):         0 
cpu0_L1D PAGE CROSSINGS (TLB MISS):         0 
cpu0_L1D AVERAGE MISS LATENCY: 24.7378 cycles
cpu0_L2C TOTAL       ACCESS:    8012589  HIT:    2496849  MISS:    5515740  iACCESS:    2958126  iHIT:     775870  iMISS:    2182256  dACCESS:    4876241  dHIT:    1619259  dMISS:    3256982  itACCESS:      48833  itHIT:      33747  itMISS:      15086  dtACCESS:     129389  dtHIT:      67973  dtMISS:      61416
cpu0_L2C LOAD         ACCESS:    3030004  HIT:    1094858  MISS:    1935146  iACCESS:     694184  iHIT:     125265  iMISS:     568919  dACCESS:    2335820  dHIT:     969593  dMISS:    1366227  itACCESS:          0  itHIT:          0  itMISS:          0  dtACCESS:          0  dtHIT:          0  dtMISS:          0
cpu0_L2C RFO          ACCESS:     179809  HIT:      56984  MISS:     122825  iACCESS:          0  iHIT:          0  iMISS:          0  dACCESS:     179809  dHIT:      56984  dMISS:     122825  itACCESS:          0  itHIT:          0  itMISS:          0  dtACCESS:          0  dtHIT:          0  dtMISS:          0
cpu0_L2C PREFETCH     ACCESS:    4356056  HIT:    1105531  MISS:    3250525  iACCESS:    2263942  iHIT:     650605  iMISS:    1613337  dACCESS:    2092114  dHIT:     454926  dMISS:    1637188  itACCESS:          0  itHIT:          0  itMISS:          0  dtACCESS:          0  dtHIT:          0  dtMISS:          0
cpu0_L2C WRITE        ACCESS:     268498  HIT:     137756  MISS:     130742  iACCESS:          0  iHIT:          0  iMISS:          0  dACCESS:     268498  dHIT:     137756  dMISS:     130742  itACCESS:          0  itHIT:          0  itMISS:          0  dtACCESS:          0  dtHIT:          0  dtMISS:          0
cpu0_L2C TRANSLATION  ACCESS:     178222  HIT:     101720  MISS:      76502  iACCESS:          0  iHIT:          0  iMISS:          0  dACCESS:          0  dHIT:          0  dMISS:          0  itACCESS:      48833  itHIT:      33747  itMISS:      15086  dtACCESS:     129389  dtHIT:      67973  dtMISS:      61416
cpu0_L2C PREFETCH  REQUESTED:    1262620  ISSUED:    1262620  CROSSED:          0  USEFUL:     372400  USELESS:     340435
cpu0_L2C AVERAGE iMISS LATENCY: 13.7817 cycles
cpu0_L2C AVERAGE dMISS LATENCY: 26.2392 cycles
cpu0_L2C AVERAGE itMISS LATENCY: 0.364447 cycles
cpu0_L2C AVERAGE dtMISS LATENCY: 1.23624 cycles
cpu0_L2C PAGE CROSSINGS (TLB HIT):         0 
cpu0_L2C PAGE CROSSINGS (TLB MISS):         0 
cpu0_L2C AVERAGE MISS LATENCY: 41.6215 cycles
LLC TOTAL       ACCESS:    5421428  HIT:    4629233  MISS:     792195  iACCESS:    2136298  iHIT:    1904975  iMISS:     231323  dACCESS:    3208628  dHIT:    2688870  dMISS:     519758  itACCESS:      15086  itHIT:       5254  itMISS:       9832  dtACCESS:      61416  dtHIT:      30134  dtMISS:      31282
LLC LOAD         ACCESS:    1932629  HIT:    1759880  MISS:     172749  iACCESS:     567591  iHIT:     519358  iMISS:      48233  dACCESS:    1365038  dHIT:    1240522  dMISS:     124516  itACCESS:          0  itHIT:          0  itMISS:          0  dtACCESS:          0  dtHIT:          0  dtMISS:          0
LLC RFO          ACCESS:     122818  HIT:      74762  MISS:      48056  iACCESS:          0  iHIT:          0  iMISS:          0  dACCESS:     122818  dHIT:      74762  dMISS:      48056  itACCESS:          0  itHIT:          0  itMISS:          0  dtACCESS:          0  dtHIT:          0  dtMISS:          0
LLC PREFETCH     ACCESS:    3150882  HIT:    2629247  MISS:     521635  iACCESS:    1568707  iHIT:    1385617  iMISS:     183090  dACCESS:    1582175  dHIT:    1243630  dMISS:     338545  itACCESS:          0  itHIT:          0  itMISS:          0  dtACCESS:          0  dtHIT:          0  dtMISS:          0
LLC WRITE        ACCESS:     138597  HIT:     129956  MISS:       8641  iACCESS:          0  iHIT:          0  iMISS:          0  dACCESS:     138597  dHIT:     129956  dMISS:       8641  itACCESS:          0  itHIT:          0  itMISS:          0  dtACCESS:          0  dtHIT:          0  dtMISS:          0
LLC TRANSLATION  ACCESS:      76502  HIT:      35388  MISS:      41114  iACCESS:          0  iHIT:          0  iMISS:          0  dACCESS:          0  dHIT:          0  dMISS:          0  itACCESS:      15086  itHIT:       5254  itMISS:       9832  dtACCESS:      61416  dtHIT:      30134  dtMISS:      31282
LLC PREFETCH  REQUESTED:          0  ISSUED:          0  CROSSED:          0  USEFUL:          0  USELESS:          0
LLC AVERAGE iMISS LATENCY: 43.9039 cycles
LLC AVERAGE dMISS LATENCY: 107.751 cycles
LLC AVERAGE itMISS LATENCY: 2.1641 cycles
LLC AVERAGE dtMISS LATENCY: 7.09652 cycles
LLC PAGE CROSSINGS (TLB HIT):         0 
LLC PAGE CROSSINGS (TLB MISS):         0 
LLC AVERAGE MISS LATENCY: 160.915 cycles

PageTableWalker TOTAL       ACCESS:      85530  
PageTableWalker AVERAGE LATENCY: 4.56431 cycles
PageTableWalker TOTAL LATENCY: 390385 cycles

DRAM Statistics
Channel 0
 RQ ROW_BUFFER_HIT:     225997
  ROW_BUFFER_MISS:     556821
 AVG DBUS CONGESTED CYCLE:     3.6821
 WQ ROW_BUFFER_HIT:      15762
  ROW_BUFFER_MISS:      33979  FULL:          0

