last_page:0x200000000000000
VMEM_RES_CAP:0x100000
PAGE_SIZE:4096
LOG2_PAGE_SIZE:12
LOG2_PAGE_TABLE_SIZE:9
page_table_levels:5
WARNING: physical memory size is smaller than virtual memory size
FDiP enabled with aggresivity 16

*** ChampSim Multicore Out-of-Order Simulator ***

Warmup Instructions: 50000000
Simulation Instructions: 100000000
Number of CPUs: 1
Small page size: 4096
Large page size: 2097152

CPU 0 Bimodal branch predictor
Basic BTB sets: 1024 ways: 8 indirect buffer size: 4096 RAS size: 64
Instruction page size distrubution: 0
Loading instruction page size distribution from /home/bsc/bsc018186/scratch/itp_asplos25_AE/dump/srv489_ap.pdst
Data page size distrubution: 0
Loading data page size distribution from /home/bsc/bsc018186/scratch/itp_asplos25_AE/dump/srv489_ap.pdst
cpu0_L2C IP-based stride prefetcher
cpu0_L1D next line prefetcher
CHiRPing...
cpu0_L1I next line prefetcher
Off-chip DRAM Size: 4 GiB Channels: 1 Width: 64-bit Data Rate: 3200 MT/s
Heartbeat CPU 0 instructions: 10000002 cycles: 2500213 heartbeat IPC: 3.99967 cumulative IPC: 3.99967 (Simulation time: 0 hr 0 min 38 sec) 
Heartbeat CPU 0 instructions: 20000000 cycles: 5000506 heartbeat IPC: 3.99954 cumulative IPC: 3.9996 (Simulation time: 0 hr 1 min 18 sec) 
Heartbeat CPU 0 instructions: 30000000 cycles: 7500660 heartbeat IPC: 3.99976 cumulative IPC: 3.99965 (Simulation time: 0 hr 1 min 59 sec) 
Heartbeat CPU 0 instructions: 40000001 cycles: 10000676 heartbeat IPC: 3.99998 cumulative IPC: 3.99973 (Simulation time: 0 hr 2 min 41 sec) 
Heartbeat CPU 0 instructions: 50000002 cycles: 12500754 heartbeat IPC: 3.99988 cumulative IPC: 3.99976 (Simulation time: 0 hr 3 min 23 sec) 
Warmup finished CPU 0 instructions: 50000002 cycles: 12500755 cumulative IPC: 3.99976 (Simulation time: 0 hr 3 min 23 sec) 

Warmup complete CPU 0 instructions: 50000002 cycles: 12500755 (Simulation time: 0 hr 3 min 23 sec) 

Heartbeat CPU 0 instructions: 60000000 cycles: 26852938 heartbeat IPC: 0.696758 cumulative IPC: 0.696758 (Simulation time: 0 hr 4 min 30 sec) 
Heartbeat CPU 0 instructions: 70000000 cycles: 41025384 heartbeat IPC: 0.705595 cumulative IPC: 0.701149 (Simulation time: 0 hr 5 min 36 sec) 
Heartbeat CPU 0 instructions: 80000001 cycles: 55018548 heartbeat IPC: 0.714635 cumulative IPC: 0.705587 (Simulation time: 0 hr 6 min 42 sec) 
Heartbeat CPU 0 instructions: 90000003 cycles: 68591930 heartbeat IPC: 0.736737 cumulative IPC: 0.713125 (Simulation time: 0 hr 7 min 48 sec) 
Heartbeat CPU 0 instructions: 100000000 cycles: 82818698 heartbeat IPC: 0.702901 cumulative IPC: 0.711057 (Simulation time: 0 hr 8 min 54 sec) 
*** Reached end of trace: /gpfs/projects/bsc18/MN4/bsc18/romol/ChampSim/traces/qualcomm_srv/srv489_ap.champsimtrace.xz
Heartbeat CPU 0 instructions: 110000004 cycles: 96523231 heartbeat IPC: 0.729686 cumulative IPC: 0.714095 (Simulation time: 0 hr 9 min 59 sec) 
Heartbeat CPU 0 instructions: 120000002 cycles: 109632700 heartbeat IPC: 0.762808 cumulative IPC: 0.72067 (Simulation time: 0 hr 11 min 3 sec) 
Heartbeat CPU 0 instructions: 130000000 cycles: 123487951 heartbeat IPC: 0.721748 cumulative IPC: 0.720804 (Simulation time: 0 hr 12 min 7 sec) 
Heartbeat CPU 0 instructions: 140000000 cycles: 136638265 heartbeat IPC: 0.760439 cumulative IPC: 0.725003 (Simulation time: 0 hr 13 min 11 sec) 
Heartbeat CPU 0 instructions: 150000000 cycles: 150677608 heartbeat IPC: 0.712285 cumulative IPC: 0.723711 (Simulation time: 0 hr 14 min 18 sec) 
Simulation finished CPU 0 instructions: 100000001 cycles: 138176855 cumulative IPC: 0.723711 (Simulation time: 0 hr 14 min 18 sec) 

Simulation complete CPU 0 instructions: 100000001 cycles: 138176855 (Simulation time: 0 hr 14 min 18 sec) 


ChampSim completed all CPUs

Saving instructions large page distribution to /home/bsc/bsc018186/scratch/itp_asplos25_AE/dump/srv489_ap.pdst...
Saving data large page distribution to /home/bsc/bsc018186/scratch/itp_asplos25_AE/dump/srv489_ap.pdst...
=== Simulation ===
CPU 0 runs /gpfs/projects/bsc18/MN4/bsc18/romol/ChampSim/traces/qualcomm_srv/srv489_ap.champsimtrace.xz

Region of Interest Statistics

CPU 0 cumulative IPC: 0.723711 instructions: 100000001 cycles: 138176855
CPU 0 Branch Prediction Accuracy: 83.562% MPKI: 29.4231 Average ROB Occupancy at Mispredict: 12.3547
Branch type MPKI
BRANCH_DIRECT_JUMP: 1.01148
BRANCH_INDIRECT: 15.1795
BRANCH_CONDITIONAL: 9.58188
BRANCH_DIRECT_CALL: 1.824
BRANCH_INDIRECT_CALL: 0.50349
BRANCH_RETURN: 1.32271

Instructions large pages: 0
Instructions small pages: 10830
Large page distribution for instructions: 0%

Data large pages: 0
Data small pages: 9820
Large page distribution for data: 0%

cpu0_L1I TOTAL       ACCESS:   35146811  HIT:   26907748  MISS:    8239063  iACCESS:   35146811  iHIT:   26907748  iMISS:    8239063  dACCESS:          0  dHIT:          0  dMISS:          0  itACCESS:          0  itHIT:          0  itMISS:          0  dtACCESS:          0  dtHIT:          0  dtMISS:          0
cpu0_L1I LOAD         ACCESS:   10319224  HIT:    8007913  MISS:    2311311  iACCESS:   10319224  iHIT:    8007913  iMISS:    2311311  dACCESS:          0  dHIT:          0  dMISS:          0  itACCESS:          0  itHIT:          0  itMISS:          0  dtACCESS:          0  dtHIT:          0  dtMISS:          0
cpu0_L1I RFO          ACCESS:          0  HIT:          0  MISS:          0  iACCESS:          0  iHIT:          0  iMISS:          0  dACCESS:          0  dHIT:          0  dMISS:          0  itACCESS:          0  itHIT:          0  itMISS:          0  dtACCESS:          0  dtHIT:          0  dtMISS:          0
cpu0_L1I PREFETCH     ACCESS:   24827587  HIT:   18899835  MISS:    5927752  iACCESS:   24827587  iHIT:   18899835  iMISS:    5927752  dACCESS:          0  dHIT:          0  dMISS:          0  itACCESS:          0  itHIT:          0  itMISS:          0  dtACCESS:          0  dtHIT:          0  dtMISS:          0
cpu0_L1I WRITE        ACCESS:          0  HIT:          0  MISS:          0  iACCESS:          0  iHIT:          0  iMISS:          0  dACCESS:          0  dHIT:          0  dMISS:          0  itACCESS:          0  itHIT:          0  itMISS:          0  dtACCESS:          0  dtHIT:          0  dtMISS:          0
cpu0_L1I TRANSLATION  ACCESS:          0  HIT:          0  MISS:          0  iACCESS:          0  iHIT:          0  iMISS:          0  dACCESS:          0  dHIT:          0  dMISS:          0  itACCESS:          0  itHIT:          0  itMISS:          0  dtACCESS:          0  dtHIT:          0  dtMISS:          0
cpu0_L1I PREFETCH  REQUESTED:   27220081  ISSUED:   27219500  CROSSED:          0  USEFUL:    1885612  USELESS:     624554
cpu0_L1I AVERAGE iMISS LATENCY: 13.1591 cycles
cpu0_L1I AVERAGE dMISS LATENCY: 0 cycles
cpu0_L1I AVERAGE itMISS LATENCY: 0 cycles
cpu0_L1I AVERAGE dtMISS LATENCY: 0 cycles
cpu0_L1I PAGE CROSSINGS (TLB HIT):         0 
cpu0_L1I PAGE CROSSINGS (TLB MISS):         0 
cpu0_L1I AVERAGE MISS LATENCY: 13.1591 cycles
cpu0_ITLB TOTAL       ACCESS:   29086639  HIT:   27119150  MISS:    1967489  iACCESS:   29086639  iHIT:   27119150  iMISS:    1967489  dACCESS:          0  dHIT:          0  dMISS:          0  itACCESS:          0  itHIT:          0  itMISS:          0  dtACCESS:          0  dtHIT:          0  dtMISS:          0
cpu0_ITLB LOAD         ACCESS:   29086639  HIT:   27119150  MISS:    1967489  iACCESS:   29086639  iHIT:   27119150  iMISS:    1967489  dACCESS:          0  dHIT:          0  dMISS:          0  itACCESS:          0  itHIT:          0  itMISS:          0  dtACCESS:          0  dtHIT:          0  dtMISS:          0
cpu0_ITLB RFO          ACCESS:          0  HIT:          0  MISS:          0  iACCESS:          0  iHIT:          0  iMISS:          0  dACCESS:          0  dHIT:          0  dMISS:          0  itACCESS:          0  itHIT:          0  itMISS:          0  dtACCESS:          0  dtHIT:          0  dtMISS:          0
cpu0_ITLB PREFETCH     ACCESS:          0  HIT:          0  MISS:          0  iACCESS:          0  iHIT:          0  iMISS:          0  dACCESS:          0  dHIT:          0  dMISS:          0  itACCESS:          0  itHIT:          0  itMISS:          0  dtACCESS:          0  dtHIT:          0  dtMISS:          0
cpu0_ITLB WRITE        ACCESS:          0  HIT:          0  MISS:          0  iACCESS:          0  iHIT:          0  iMISS:          0  dACCESS:          0  dHIT:          0  dMISS:          0  itACCESS:          0  itHIT:          0  itMISS:          0  dtACCESS:          0  dtHIT:          0  dtMISS:          0
cpu0_ITLB TRANSLATION  ACCESS:          0  HIT:          0  MISS:          0  iACCESS:          0  iHIT:          0  iMISS:          0  dACCESS:          0  dHIT:          0  dMISS:          0  itACCESS:          0  itHIT:          0  itMISS:          0  dtACCESS:          0  dtHIT:          0  dtMISS:          0
cpu0_ITLB PREFETCH  REQUESTED:          0  ISSUED:          0  CROSSED:          0  USEFUL:     320368  USELESS:      66080
cpu0_ITLB AVERAGE iMISS LATENCY: 3.04389 cycles
cpu0_ITLB AVERAGE dMISS LATENCY: 0 cycles
cpu0_ITLB AVERAGE itMISS LATENCY: 0 cycles
cpu0_ITLB AVERAGE dtMISS LATENCY: 0 cycles
cpu0_ITLB PAGE CROSSINGS (TLB HIT):         0 
cpu0_ITLB PAGE CROSSINGS (TLB MISS):         0 
cpu0_ITLB AVERAGE MISS LATENCY: 3.04389 cycles
cpu0_DTLB TOTAL       ACCESS:   27682192  HIT:   25865438  MISS:    1816754  iACCESS:          0  iHIT:          0  iMISS:          0  dACCESS:   27682192  dHIT:   25865438  dMISS:    1816754  itACCESS:          0  itHIT:          0  itMISS:          0  dtACCESS:          0  dtHIT:          0  dtMISS:          0
cpu0_DTLB LOAD         ACCESS:   27682192  HIT:   25865438  MISS:    1816754  iACCESS:          0  iHIT:          0  iMISS:          0  dACCESS:   27682192  dHIT:   25865438  dMISS:    1816754  itACCESS:          0  itHIT:          0  itMISS:          0  dtACCESS:          0  dtHIT:          0  dtMISS:          0
cpu0_DTLB RFO          ACCESS:          0  HIT:          0  MISS:          0  iACCESS:          0  iHIT:          0  iMISS:          0  dACCESS:          0  dHIT:          0  dMISS:          0  itACCESS:          0  itHIT:          0  itMISS:          0  dtACCESS:          0  dtHIT:          0  dtMISS:          0
cpu0_DTLB PREFETCH     ACCESS:          0  HIT:          0  MISS:          0  iACCESS:          0  iHIT:          0  iMISS:          0  dACCESS:          0  dHIT:          0  dMISS:          0  itACCESS:          0  itHIT:          0  itMISS:          0  dtACCESS:          0  dtHIT:          0  dtMISS:          0
cpu0_DTLB WRITE        ACCESS:          0  HIT:          0  MISS:          0  iACCESS:          0  iHIT:          0  iMISS:          0  dACCESS:          0  dHIT:          0  dMISS:          0  itACCESS:          0  itHIT:          0  itMISS:          0  dtACCESS:          0  dtHIT:          0  dtMISS:          0
cpu0_DTLB TRANSLATION  ACCESS:          0  HIT:          0  MISS:          0  iACCESS:          0  iHIT:          0  iMISS:          0  dACCESS:          0  dHIT:          0  dMISS:          0  itACCESS:          0  itHIT:          0  itMISS:          0  dtACCESS:          0  dtHIT:          0  dtMISS:          0
cpu0_DTLB PREFETCH  REQUESTED:          0  ISSUED:          0  CROSSED:          0  USEFUL:          0  USELESS:          0
cpu0_DTLB AVERAGE iMISS LATENCY: 0 cycles
cpu0_DTLB AVERAGE dMISS LATENCY: 10.7707 cycles
cpu0_DTLB AVERAGE itMISS LATENCY: 0 cycles
cpu0_DTLB AVERAGE dtMISS LATENCY: 0 cycles
cpu0_DTLB PAGE CROSSINGS (TLB HIT):         0 
cpu0_DTLB PAGE CROSSINGS (TLB MISS):         0 
cpu0_DTLB AVERAGE MISS LATENCY: 10.7707 cycles
cpu0_STLB TOTAL       ACCESS:    1501379  HIT:    1330308  MISS:     171071  iACCESS:     386473  iHIT:     324102  iMISS:      62371  dACCESS:    1114906  dHIT:    1006206  dMISS:     108700  itACCESS:          0  itHIT:          0  itMISS:          0  dtACCESS:          0  dtHIT:          0  dtMISS:          0
cpu0_STLB LOAD         ACCESS:    1501379  HIT:    1330308  MISS:     171071  iACCESS:     386473  iHIT:     324102  iMISS:      62371  dACCESS:    1114906  dHIT:    1006206  dMISS:     108700  itACCESS:          0  itHIT:          0  itMISS:          0  dtACCESS:          0  dtHIT:          0  dtMISS:          0
cpu0_STLB RFO          ACCESS:          0  HIT:          0  MISS:          0  iACCESS:          0  iHIT:          0  iMISS:          0  dACCESS:          0  dHIT:          0  dMISS:          0  itACCESS:          0  itHIT:          0  itMISS:          0  dtACCESS:          0  dtHIT:          0  dtMISS:          0
cpu0_STLB PREFETCH     ACCESS:          0  HIT:          0  MISS:          0  iACCESS:          0  iHIT:          0  iMISS:          0  dACCESS:          0  dHIT:          0  dMISS:          0  itACCESS:          0  itHIT:          0  itMISS:          0  dtACCESS:          0  dtHIT:          0  dtMISS:          0
cpu0_STLB WRITE        ACCESS:          0  HIT:          0  MISS:          0  iACCESS:          0  iHIT:          0  iMISS:          0  dACCESS:          0  dHIT:          0  dMISS:          0  itACCESS:          0  itHIT:          0  itMISS:          0  dtACCESS:          0  dtHIT:          0  dtMISS:          0
cpu0_STLB TRANSLATION  ACCESS:          0  HIT:          0  MISS:          0  iACCESS:          0  iHIT:          0  iMISS:          0  dACCESS:          0  dHIT:          0  dMISS:          0  itACCESS:          0  itHIT:          0  itMISS:          0  dtACCESS:          0  dtHIT:          0  dtMISS:          0
cpu0_STLB PREFETCH  REQUESTED:          0  ISSUED:          0  CROSSED:          0  USEFUL:          0  USELESS:          0
cpu0_STLB AVERAGE iMISS LATENCY: 17.1373 cycles
cpu0_STLB AVERAGE dMISS LATENCY: 62.3889 cycles
cpu0_STLB AVERAGE itMISS LATENCY: 0 cycles
cpu0_STLB AVERAGE dtMISS LATENCY: 0 cycles
cpu0_STLB PAGE CROSSINGS (TLB HIT):         0 
cpu0_STLB PAGE CROSSINGS (TLB MISS):         0 
cpu0_STLB AVERAGE MISS LATENCY: 79.5261 cycles
cpu0_L1D TOTAL       ACCESS:   41354222  HIT:   37965077  MISS:    3389145  iACCESS:          0  iHIT:          0  iMISS:          0  dACCESS:   41124985  dHIT:   37944360  dMISS:    3180625  itACCESS:      67918  itHIT:       9716  itMISS:      58202  dtACCESS:     161319  dtHIT:      11001  dtMISS:     150318
cpu0_L1D LOAD         ACCESS:   18904370  HIT:   17450809  MISS:    1453561  iACCESS:          0  iHIT:          0  iMISS:          0  dACCESS:   18904370  dHIT:   17450809  dMISS:    1453561  itACCESS:          0  itHIT:          0  itMISS:          0  dtACCESS:          0  dtHIT:          0  dtMISS:          0
cpu0_L1D RFO          ACCESS:          0  HIT:          0  MISS:          0  iACCESS:          0  iHIT:          0  iMISS:          0  dACCESS:          0  dHIT:          0  dMISS:          0  itACCESS:          0  itHIT:          0  itMISS:          0  dtACCESS:          0  dtHIT:          0  dtMISS:          0
cpu0_L1D PREFETCH     ACCESS:   12047070  HIT:   10739813  MISS:    1307257  iACCESS:          0  iHIT:          0  iMISS:          0  dACCESS:   12047070  dHIT:   10739813  dMISS:    1307257  itACCESS:          0  itHIT:          0  itMISS:          0  dtACCESS:          0  dtHIT:          0  dtMISS:          0
cpu0_L1D WRITE        ACCESS:   10173545  HIT:    9753738  MISS:     419807  iACCESS:          0  iHIT:          0  iMISS:          0  dACCESS:   10173545  dHIT:    9753738  dMISS:     419807  itACCESS:          0  itHIT:          0  itMISS:          0  dtACCESS:          0  dtHIT:          0  dtMISS:          0
cpu0_L1D TRANSLATION  ACCESS:     229237  HIT:      20717  MISS:     208520  iACCESS:          0  iHIT:          0  iMISS:          0  dACCESS:          0  dHIT:          0  dMISS:          0  itACCESS:      67918  itHIT:       9716  itMISS:      58202  dtACCESS:     161319  dtHIT:      11001  dtMISS:     150318
cpu0_L1D PREFETCH  REQUESTED:   18904370  ISSUED:   16853535  CROSSED:          0  USEFUL:     304454  USELESS:     695140
cpu0_L1D AVERAGE iMISS LATENCY: 0 cycles
cpu0_L1D AVERAGE dMISS LATENCY: 33.5986 cycles
cpu0_L1D AVERAGE itMISS LATENCY: 0.705496 cycles
cpu0_L1D AVERAGE dtMISS LATENCY: 2.43459 cycles
cpu0_L1D PAGE CROSSINGS (TLB HIT):         0 
cpu0_L1D PAGE CROSSINGS (TLB MISS):         0 
cpu0_L1D AVERAGE MISS LATENCY: 36.7387 cycles
cpu0_L2C TOTAL       ACCESS:    6888814  HIT:    1703893  MISS:    5184921  iACCESS:    3262838  iHIT:     863161  iMISS:    2399677  dACCESS:    3423744  dHIT:     718906  dMISS:    2704838  itACCESS:      58202  itHIT:      42877  itMISS:      15325  dtACCESS:     144030  dtHIT:      78949  dtMISS:      65081
cpu0_L2C LOAD         ACCESS:    1706500  HIT:     313227  MISS:    1393273  iACCESS:     785641  iHIT:     157670  iMISS:     627971  dACCESS:     920859  dHIT:     155557  dMISS:     765302  itACCESS:          0  itHIT:          0  itMISS:          0  dtACCESS:          0  dtHIT:          0  dtMISS:          0
cpu0_L2C RFO          ACCESS:     156575  HIT:      53278  MISS:     103297  iACCESS:          0  iHIT:          0  iMISS:          0  dACCESS:     156575  dHIT:      53278  dMISS:     103297  itACCESS:          0  itHIT:          0  itMISS:          0  dtACCESS:          0  dtHIT:          0  dtMISS:          0
cpu0_L2C PREFETCH     ACCESS:    4540268  HIT:    1072813  MISS:    3467455  iACCESS:    2477197  iHIT:     705491  iMISS:    1771706  dACCESS:    2063071  dHIT:     367322  dMISS:    1695749  itACCESS:          0  itHIT:          0  itMISS:          0  dtACCESS:          0  dtHIT:          0  dtMISS:          0
cpu0_L2C WRITE        ACCESS:     283239  HIT:     142749  MISS:     140490  iACCESS:          0  iHIT:          0  iMISS:          0  dACCESS:     283239  dHIT:     142749  dMISS:     140490  itACCESS:          0  itHIT:          0  itMISS:          0  dtACCESS:          0  dtHIT:          0  dtMISS:          0
cpu0_L2C TRANSLATION  ACCESS:     202232  HIT:     121826  MISS:      80406  iACCESS:          0  iHIT:          0  iMISS:          0  dACCESS:          0  dHIT:          0  dMISS:          0  itACCESS:      58202  itHIT:      42877  itMISS:      15325  dtACCESS:     144030  dtHIT:      78949  dtMISS:      65081
cpu0_L2C PREFETCH  REQUESTED:    1310078  ISSUED:    1310078  CROSSED:          0  USEFUL:     388268  USELESS:     353829
cpu0_L2C AVERAGE iMISS LATENCY: 15.1562 cycles
cpu0_L2C AVERAGE dMISS LATENCY: 24.9399 cycles
cpu0_L2C AVERAGE itMISS LATENCY: 0.356933 cycles
cpu0_L2C AVERAGE dtMISS LATENCY: 1.32723 cycles
cpu0_L2C PAGE CROSSINGS (TLB HIT):         0 
cpu0_L2C PAGE CROSSINGS (TLB MISS):         0 
cpu0_L2C AVERAGE MISS LATENCY: 41.7802 cycles
LLC TOTAL       ACCESS:    5076835  HIT:    4296685  MISS:     780150  iACCESS:    2351107  iHIT:    2122149  iMISS:     228958  dACCESS:    2645322  dHIT:    2135115  dMISS:     510207  itACCESS:      15325  itHIT:       6325  itMISS:       9000  dtACCESS:      65081  dtHIT:      33096  dtMISS:      31985
LLC LOAD         ACCESS:    1391511  HIT:    1213587  MISS:     177924  iACCESS:     626677  iHIT:     576631  iMISS:      50046  dACCESS:     764834  dHIT:     636956  dMISS:     127878  itACCESS:          0  itHIT:          0  itMISS:          0  dtACCESS:          0  dtHIT:          0  dtMISS:          0
LLC RFO          ACCESS:     103296  HIT:      68960  MISS:      34336  iACCESS:          0  iHIT:          0  iMISS:          0  dACCESS:     103296  dHIT:      68960  dMISS:      34336  itACCESS:          0  itHIT:          0  itMISS:          0  dtACCESS:          0  dtHIT:          0  dtMISS:          0
LLC PREFETCH     ACCESS:    3371595  HIT:    2853786  MISS:     517809  iACCESS:    1724430  iHIT:    1545518  iMISS:     178912  dACCESS:    1647165  dHIT:    1308268  dMISS:     338897  itACCESS:          0  itHIT:          0  itMISS:          0  dtACCESS:          0  dtHIT:          0  dtMISS:          0
LLC WRITE        ACCESS:     130027  HIT:     120931  MISS:       9096  iACCESS:          0  iHIT:          0  iMISS:          0  dACCESS:     130027  dHIT:     120931  dMISS:       9096  itACCESS:          0  itHIT:          0  itMISS:          0  dtACCESS:          0  dtHIT:          0  dtMISS:          0
LLC TRANSLATION  ACCESS:      80406  HIT:      39421  MISS:      40985  iACCESS:          0  iHIT:          0  iMISS:          0  dACCESS:          0  dHIT:          0  dMISS:          0  itACCESS:      15325  itHIT:       6325  itMISS:       9000  dtACCESS:      65081  dtHIT:      33096  dtMISS:      31985
LLC PREFETCH  REQUESTED:          0  ISSUED:          0  CROSSED:          0  USEFUL:          0  USELESS:          0
LLC AVERAGE iMISS LATENCY: 42.5936 cycles
LLC AVERAGE dMISS LATENCY: 103.495 cycles
LLC AVERAGE itMISS LATENCY: 1.98815 cycles
LLC AVERAGE dtMISS LATENCY: 7.19597 cycles
LLC PAGE CROSSINGS (TLB HIT):         0 
LLC PAGE CROSSINGS (TLB MISS):         0 
LLC AVERAGE MISS LATENCY: 155.273 cycles

PageTableWalker TOTAL       ACCESS:      84842  
PageTableWalker AVERAGE LATENCY: 4.51824 cycles
PageTableWalker TOTAL LATENCY: 383336 cycles

DRAM Statistics
Channel 0
 RQ ROW_BUFFER_HIT:     218975
  ROW_BUFFER_MISS:     552020
 AVG DBUS CONGESTED CYCLE:     3.6192
 WQ ROW_BUFFER_HIT:      15352
  ROW_BUFFER_MISS:      21287  FULL:          0

