last_page:0x200000000000000
VMEM_RES_CAP:0x100000
PAGE_SIZE:4096
LOG2_PAGE_SIZE:12
LOG2_PAGE_TABLE_SIZE:9
page_table_levels:5
WARNING: physical memory size is smaller than virtual memory size
FDiP enabled with aggresivity 16

*** ChampSim Multicore Out-of-Order Simulator ***

Warmup Instructions: 50000000
Simulation Instructions: 100000000
Number of CPUs: 1
Small page size: 4096
Large page size: 2097152

CPU 0 Bimodal branch predictor
Basic BTB sets: 1024 ways: 8 indirect buffer size: 4096 RAS size: 64
Instruction page size distrubution: 0
Loading instruction page size distribution from /home/bsc/bsc018186/scratch/itp_asplos25_AE/dump/srv420_ap.pdst
Data page size distrubution: 0
Loading data page size distribution from /home/bsc/bsc018186/scratch/itp_asplos25_AE/dump/srv420_ap.pdst
cpu0_L2C IP-based stride prefetcher
cpu0_L1D next line prefetcher
cpu0_L1I next line prefetcher
Off-chip DRAM Size: 4 GiB Channels: 1 Width: 64-bit Data Rate: 3200 MT/s
Heartbeat CPU 0 instructions: 10000003 cycles: 2500203 heartbeat IPC: 3.99968 cumulative IPC: 3.99968 (Simulation time: 0 hr 0 min 34 sec) 
Heartbeat CPU 0 instructions: 20000002 cycles: 5000287 heartbeat IPC: 3.99987 cumulative IPC: 3.99978 (Simulation time: 0 hr 1 min 11 sec) 
Heartbeat CPU 0 instructions: 30000002 cycles: 7500317 heartbeat IPC: 3.99996 cumulative IPC: 3.99984 (Simulation time: 0 hr 1 min 47 sec) 
Heartbeat CPU 0 instructions: 40000003 cycles: 10000335 heartbeat IPC: 3.99998 cumulative IPC: 3.99987 (Simulation time: 0 hr 2 min 24 sec) 
Heartbeat CPU 0 instructions: 50000000 cycles: 12500343 heartbeat IPC: 3.99999 cumulative IPC: 3.9999 (Simulation time: 0 hr 3 min 2 sec) 
Warmup finished CPU 0 instructions: 50000000 cycles: 12500344 cumulative IPC: 3.99989 (Simulation time: 0 hr 3 min 2 sec) 

Warmup complete CPU 0 instructions: 50000000 cycles: 12500344 (Simulation time: 0 hr 3 min 2 sec) 

Heartbeat CPU 0 instructions: 60000002 cycles: 28005611 heartbeat IPC: 0.644943 cumulative IPC: 0.644943 (Simulation time: 0 hr 4 min 2 sec) 
Heartbeat CPU 0 instructions: 70000003 cycles: 43025738 heartbeat IPC: 0.665774 cumulative IPC: 0.655193 (Simulation time: 0 hr 5 min 2 sec) 
Heartbeat CPU 0 instructions: 80000000 cycles: 57700140 heartbeat IPC: 0.681459 cumulative IPC: 0.66372 (Simulation time: 0 hr 6 min 2 sec) 
Heartbeat CPU 0 instructions: 90000001 cycles: 73275147 heartbeat IPC: 0.642055 cumulative IPC: 0.658168 (Simulation time: 0 hr 7 min 2 sec) 
Heartbeat CPU 0 instructions: 100000000 cycles: 88420907 heartbeat IPC: 0.660251 cumulative IPC: 0.658584 (Simulation time: 0 hr 8 min 2 sec) 
*** Reached end of trace: /gpfs/projects/bsc18/MN4/bsc18/romol/ChampSim/traces/qualcomm_srv/srv420_ap.champsimtrace.xz
Heartbeat CPU 0 instructions: 110000001 cycles: 103933157 heartbeat IPC: 0.644652 cumulative IPC: 0.65622 (Simulation time: 0 hr 9 min 3 sec) 
Heartbeat CPU 0 instructions: 120000002 cycles: 119316841 heartbeat IPC: 0.65004 cumulative IPC: 0.65533 (Simulation time: 0 hr 10 min 4 sec) 
Heartbeat CPU 0 instructions: 130000001 cycles: 134436858 heartbeat IPC: 0.661375 cumulative IPC: 0.65608 (Simulation time: 0 hr 11 min 4 sec) 
Heartbeat CPU 0 instructions: 140000001 cycles: 149479292 heartbeat IPC: 0.664787 cumulative IPC: 0.657036 (Simulation time: 0 hr 12 min 4 sec) 
Heartbeat CPU 0 instructions: 150000001 cycles: 164373642 heartbeat IPC: 0.671396 cumulative IPC: 0.658444 (Simulation time: 0 hr 13 min 4 sec) 
Simulation finished CPU 0 instructions: 100000001 cycles: 151873299 cumulative IPC: 0.658444 (Simulation time: 0 hr 13 min 4 sec) 

Simulation complete CPU 0 instructions: 100000001 cycles: 151873299 (Simulation time: 0 hr 13 min 4 sec) 


ChampSim completed all CPUs

Saving instructions large page distribution to /home/bsc/bsc018186/scratch/itp_asplos25_AE/dump/srv420_ap.pdst...
Saving data large page distribution to /home/bsc/bsc018186/scratch/itp_asplos25_AE/dump/srv420_ap.pdst...
=== Simulation ===
CPU 0 runs /gpfs/projects/bsc18/MN4/bsc18/romol/ChampSim/traces/qualcomm_srv/srv420_ap.champsimtrace.xz

Region of Interest Statistics

CPU 0 cumulative IPC: 0.658444 instructions: 100000001 cycles: 151873299
CPU 0 Branch Prediction Accuracy: 83.3428% MPKI: 29.8783 Average ROB Occupancy at Mispredict: 12.6891
Branch type MPKI
BRANCH_DIRECT_JUMP: 0.96063
BRANCH_INDIRECT: 15.505
BRANCH_CONDITIONAL: 9.75105
BRANCH_DIRECT_CALL: 1.83375
BRANCH_INDIRECT_CALL: 0.49639
BRANCH_RETURN: 1.33146

Instructions large pages: 0
Instructions small pages: 9814
Large page distribution for instructions: 0%

Data large pages: 0
Data small pages: 8973
Large page distribution for data: 0%

cpu0_L1I TOTAL       ACCESS:   34578833  HIT:   26638430  MISS:    7940403  iACCESS:   34578833  iHIT:   26638430  iMISS:    7940403  dACCESS:          0  dHIT:          0  dMISS:          0  itACCESS:          0  itHIT:          0  itMISS:          0  dtACCESS:          0  dtHIT:          0  dtMISS:          0
cpu0_L1I LOAD         ACCESS:   10097506  HIT:    7860299  MISS:    2237207  iACCESS:   10097506  iHIT:    7860299  iMISS:    2237207  dACCESS:          0  dHIT:          0  dMISS:          0  itACCESS:          0  itHIT:          0  itMISS:          0  dtACCESS:          0  dtHIT:          0  dtMISS:          0
cpu0_L1I RFO          ACCESS:          0  HIT:          0  MISS:          0  iACCESS:          0  iHIT:          0  iMISS:          0  dACCESS:          0  dHIT:          0  dMISS:          0  itACCESS:          0  itHIT:          0  itMISS:          0  dtACCESS:          0  dtHIT:          0  dtMISS:          0
cpu0_L1I PREFETCH     ACCESS:   24481327  HIT:   18778131  MISS:    5703196  iACCESS:   24481327  iHIT:   18778131  iMISS:    5703196  dACCESS:          0  dHIT:          0  dMISS:          0  itACCESS:          0  itHIT:          0  itMISS:          0  dtACCESS:          0  dtHIT:          0  dtMISS:          0
cpu0_L1I WRITE        ACCESS:          0  HIT:          0  MISS:          0  iACCESS:          0  iHIT:          0  iMISS:          0  dACCESS:          0  dHIT:          0  dMISS:          0  itACCESS:          0  itHIT:          0  itMISS:          0  dtACCESS:          0  dtHIT:          0  dtMISS:          0
cpu0_L1I TRANSLATION  ACCESS:          0  HIT:          0  MISS:          0  iACCESS:          0  iHIT:          0  iMISS:          0  dACCESS:          0  dHIT:          0  dMISS:          0  itACCESS:          0  itHIT:          0  itMISS:          0  dtACCESS:          0  dtHIT:          0  dtMISS:          0
cpu0_L1I PREFETCH  REQUESTED:   26981998  ISSUED:   26981998  CROSSED:          0  USEFUL:    1931417  USELESS:     635754
cpu0_L1I AVERAGE iMISS LATENCY: 12.8323 cycles
cpu0_L1I AVERAGE dMISS LATENCY: 0 cycles
cpu0_L1I AVERAGE itMISS LATENCY: 0 cycles
cpu0_L1I AVERAGE dtMISS LATENCY: 0 cycles
cpu0_L1I PAGE CROSSINGS (TLB HIT):         0 
cpu0_L1I PAGE CROSSINGS (TLB MISS):         0 
cpu0_L1I AVERAGE MISS LATENCY: 12.8323 cycles
cpu0_ITLB TOTAL       ACCESS:   28902005  HIT:   26889040  MISS:    2012965  iACCESS:   28902005  iHIT:   26889040  iMISS:    2012965  dACCESS:          0  dHIT:          0  dMISS:          0  itACCESS:          0  itHIT:          0  itMISS:          0  dtACCESS:          0  dtHIT:          0  dtMISS:          0
cpu0_ITLB LOAD         ACCESS:   28902005  HIT:   26889040  MISS:    2012965  iACCESS:   28902005  iHIT:   26889040  iMISS:    2012965  dACCESS:          0  dHIT:          0  dMISS:          0  itACCESS:          0  itHIT:          0  itMISS:          0  dtACCESS:          0  dtHIT:          0  dtMISS:          0
cpu0_ITLB RFO          ACCESS:          0  HIT:          0  MISS:          0  iACCESS:          0  iHIT:          0  iMISS:          0  dACCESS:          0  dHIT:          0  dMISS:          0  itACCESS:          0  itHIT:          0  itMISS:          0  dtACCESS:          0  dtHIT:          0  dtMISS:          0
cpu0_ITLB PREFETCH     ACCESS:          0  HIT:          0  MISS:          0  iACCESS:          0  iHIT:          0  iMISS:          0  dACCESS:          0  dHIT:          0  dMISS:          0  itACCESS:          0  itHIT:          0  itMISS:          0  dtACCESS:          0  dtHIT:          0  dtMISS:          0
cpu0_ITLB WRITE        ACCESS:          0  HIT:          0  MISS:          0  iACCESS:          0  iHIT:          0  iMISS:          0  dACCESS:          0  dHIT:          0  dMISS:          0  itACCESS:          0  itHIT:          0  itMISS:          0  dtACCESS:          0  dtHIT:          0  dtMISS:          0
cpu0_ITLB TRANSLATION  ACCESS:          0  HIT:          0  MISS:          0  iACCESS:          0  iHIT:          0  iMISS:          0  dACCESS:          0  dHIT:          0  dMISS:          0  itACCESS:          0  itHIT:          0  itMISS:          0  dtACCESS:          0  dtHIT:          0  dtMISS:          0
cpu0_ITLB PREFETCH  REQUESTED:          0  ISSUED:          0  CROSSED:          0  USEFUL:     325521  USELESS:      62962
cpu0_ITLB AVERAGE iMISS LATENCY: 4.96577 cycles
cpu0_ITLB AVERAGE dMISS LATENCY: 0 cycles
cpu0_ITLB AVERAGE itMISS LATENCY: 0 cycles
cpu0_ITLB AVERAGE dtMISS LATENCY: 0 cycles
cpu0_ITLB PAGE CROSSINGS (TLB HIT):         0 
cpu0_ITLB PAGE CROSSINGS (TLB MISS):         0 
cpu0_ITLB AVERAGE MISS LATENCY: 4.96577 cycles
cpu0_DTLB TOTAL       ACCESS:   27706792  HIT:   25643803  MISS:    2062989  iACCESS:          0  iHIT:          0  iMISS:          0  dACCESS:   27706792  dHIT:   25643803  dMISS:    2062989  itACCESS:          0  itHIT:          0  itMISS:          0  dtACCESS:          0  dtHIT:          0  dtMISS:          0
cpu0_DTLB LOAD         ACCESS:   27706792  HIT:   25643803  MISS:    2062989  iACCESS:          0  iHIT:          0  iMISS:          0  dACCESS:   27706792  dHIT:   25643803  dMISS:    2062989  itACCESS:          0  itHIT:          0  itMISS:          0  dtACCESS:          0  dtHIT:          0  dtMISS:          0
cpu0_DTLB RFO          ACCESS:          0  HIT:          0  MISS:          0  iACCESS:          0  iHIT:          0  iMISS:          0  dACCESS:          0  dHIT:          0  dMISS:          0  itACCESS:          0  itHIT:          0  itMISS:          0  dtACCESS:          0  dtHIT:          0  dtMISS:          0
cpu0_DTLB PREFETCH     ACCESS:          0  HIT:          0  MISS:          0  iACCESS:          0  iHIT:          0  iMISS:          0  dACCESS:          0  dHIT:          0  dMISS:          0  itACCESS:          0  itHIT:          0  itMISS:          0  dtACCESS:          0  dtHIT:          0  dtMISS:          0
cpu0_DTLB WRITE        ACCESS:          0  HIT:          0  MISS:          0  iACCESS:          0  iHIT:          0  iMISS:          0  dACCESS:          0  dHIT:          0  dMISS:          0  itACCESS:          0  itHIT:          0  itMISS:          0  dtACCESS:          0  dtHIT:          0  dtMISS:          0
cpu0_DTLB TRANSLATION  ACCESS:          0  HIT:          0  MISS:          0  iACCESS:          0  iHIT:          0  iMISS:          0  dACCESS:          0  dHIT:          0  dMISS:          0  itACCESS:          0  itHIT:          0  itMISS:          0  dtACCESS:          0  dtHIT:          0  dtMISS:          0
cpu0_DTLB PREFETCH  REQUESTED:          0  ISSUED:          0  CROSSED:          0  USEFUL:          0  USELESS:          0
cpu0_DTLB AVERAGE iMISS LATENCY: 0 cycles
cpu0_DTLB AVERAGE dMISS LATENCY: 13.939 cycles
cpu0_DTLB AVERAGE itMISS LATENCY: 0 cycles
cpu0_DTLB AVERAGE dtMISS LATENCY: 0 cycles
cpu0_DTLB PAGE CROSSINGS (TLB HIT):         0 
cpu0_DTLB PAGE CROSSINGS (TLB MISS):         0 
cpu0_DTLB AVERAGE MISS LATENCY: 13.939 cycles
cpu0_STLB TOTAL       ACCESS:    1555614  HIT:    1393301  MISS:     162313  iACCESS:     388492  iHIT:     331811  iMISS:      56681  dACCESS:    1167122  dHIT:    1061490  dMISS:     105632  itACCESS:          0  itHIT:          0  itMISS:          0  dtACCESS:          0  dtHIT:          0  dtMISS:          0
cpu0_STLB LOAD         ACCESS:    1555614  HIT:    1393301  MISS:     162313  iACCESS:     388492  iHIT:     331811  iMISS:      56681  dACCESS:    1167122  dHIT:    1061490  dMISS:     105632  itACCESS:          0  itHIT:          0  itMISS:          0  dtACCESS:          0  dtHIT:          0  dtMISS:          0
cpu0_STLB RFO          ACCESS:          0  HIT:          0  MISS:          0  iACCESS:          0  iHIT:          0  iMISS:          0  dACCESS:          0  dHIT:          0  dMISS:          0  itACCESS:          0  itHIT:          0  itMISS:          0  dtACCESS:          0  dtHIT:          0  dtMISS:          0
cpu0_STLB PREFETCH     ACCESS:          0  HIT:          0  MISS:          0  iACCESS:          0  iHIT:          0  iMISS:          0  dACCESS:          0  dHIT:          0  dMISS:          0  itACCESS:          0  itHIT:          0  itMISS:          0  dtACCESS:          0  dtHIT:          0  dtMISS:          0
cpu0_STLB WRITE        ACCESS:          0  HIT:          0  MISS:          0  iACCESS:          0  iHIT:          0  iMISS:          0  dACCESS:          0  dHIT:          0  dMISS:          0  itACCESS:          0  itHIT:          0  itMISS:          0  dtACCESS:          0  dtHIT:          0  dtMISS:          0
cpu0_STLB TRANSLATION  ACCESS:          0  HIT:          0  MISS:          0  iACCESS:          0  iHIT:          0  iMISS:          0  dACCESS:          0  dHIT:          0  dMISS:          0  itACCESS:          0  itHIT:          0  itMISS:          0  dtACCESS:          0  dtHIT:          0  dtMISS:          0
cpu0_STLB PREFETCH  REQUESTED:          0  ISSUED:          0  CROSSED:          0  USEFUL:          0  USELESS:          0
cpu0_STLB AVERAGE iMISS LATENCY: 42.6869 cycles
cpu0_STLB AVERAGE dMISS LATENCY: 119.762 cycles
cpu0_STLB AVERAGE itMISS LATENCY: 0 cycles
cpu0_STLB AVERAGE dtMISS LATENCY: 0 cycles
cpu0_STLB PAGE CROSSINGS (TLB HIT):         0 
cpu0_STLB PAGE CROSSINGS (TLB MISS):         0 
cpu0_STLB AVERAGE MISS LATENCY: 162.449 cycles
cpu0_L1D TOTAL       ACCESS:   41361518  HIT:   37815813  MISS:    3545705  iACCESS:          0  iHIT:          0  iMISS:          0  dACCESS:   41137275  dHIT:   37796891  dMISS:    3340384  itACCESS:      61437  itHIT:       9199  itMISS:      52238  dtACCESS:     162806  dtHIT:       9723  dtMISS:     153083
cpu0_L1D LOAD         ACCESS:   18926284  HIT:   17400055  MISS:    1526229  iACCESS:          0  iHIT:          0  iMISS:          0  dACCESS:   18926284  dHIT:   17400055  dMISS:    1526229  itACCESS:          0  itHIT:          0  itMISS:          0  dtACCESS:          0  dtHIT:          0  dtMISS:          0
cpu0_L1D RFO          ACCESS:          0  HIT:          0  MISS:          0  iACCESS:          0  iHIT:          0  iMISS:          0  dACCESS:          0  dHIT:          0  dMISS:          0  itACCESS:          0  itHIT:          0  itMISS:          0  dtACCESS:          0  dtHIT:          0  dtMISS:          0
cpu0_L1D PREFETCH     ACCESS:   12079656  HIT:   10706218  MISS:    1373438  iACCESS:          0  iHIT:          0  iMISS:          0  dACCESS:   12079656  dHIT:   10706218  dMISS:    1373438  itACCESS:          0  itHIT:          0  itMISS:          0  dtACCESS:          0  dtHIT:          0  dtMISS:          0
cpu0_L1D WRITE        ACCESS:   10131335  HIT:    9690618  MISS:     440717  iACCESS:          0  iHIT:          0  iMISS:          0  dACCESS:   10131335  dHIT:    9690618  dMISS:     440717  itACCESS:          0  itHIT:          0  itMISS:          0  dtACCESS:          0  dtHIT:          0  dtMISS:          0
cpu0_L1D TRANSLATION  ACCESS:     224243  HIT:      18922  MISS:     205321  iACCESS:          0  iHIT:          0  iMISS:          0  dACCESS:          0  dHIT:          0  dMISS:          0  itACCESS:      61437  itHIT:       9199  itMISS:      52238  dtACCESS:     162806  dtHIT:       9723  dtMISS:     153083
cpu0_L1D PREFETCH  REQUESTED:   18926284  ISSUED:   16856975  CROSSED:          0  USEFUL:     309166  USELESS:     710592
cpu0_L1D AVERAGE iMISS LATENCY: 0 cycles
cpu0_L1D AVERAGE dMISS LATENCY: 31.8307 cycles
cpu0_L1D AVERAGE itMISS LATENCY: 1.81575 cycles
cpu0_L1D AVERAGE dtMISS LATENCY: 4.83553 cycles
cpu0_L1D PAGE CROSSINGS (TLB HIT):         0 
cpu0_L1D PAGE CROSSINGS (TLB MISS):         0 
cpu0_L1D AVERAGE MISS LATENCY: 38.4819 cycles
cpu0_L2C TOTAL       ACCESS:    7035807  HIT:    4102549  MISS:    2933258  iACCESS:    3328438  iHIT:    2219878  iMISS:    1108560  dACCESS:    3515170  dHIT:    1856908  dMISS:    1658262  itACCESS:      52238  itHIT:       9493  itMISS:      42745  dtACCESS:     139961  dtHIT:      16270  dtMISS:     123691
cpu0_L2C LOAD         ACCESS:    1747561  HIT:    1060173  MISS:     687388  iACCESS:     801986  iHIT:     565313  iMISS:     236673  dACCESS:     945575  dHIT:     494860  dMISS:     450715  itACCESS:          0  itHIT:          0  itMISS:          0  dtACCESS:          0  dtHIT:          0  dtMISS:          0
cpu0_L2C RFO          ACCESS:     155829  HIT:      72237  MISS:      83592  iACCESS:          0  iHIT:          0  iMISS:          0  dACCESS:     155829  dHIT:      72237  dMISS:      83592  itACCESS:          0  itHIT:          0  itMISS:          0  dtACCESS:          0  dtHIT:          0  dtMISS:          0
cpu0_L2C PREFETCH     ACCESS:    4652636  HIT:    2658164  MISS:    1994472  iACCESS:    2526452  iHIT:    1654565  iMISS:     871887  dACCESS:    2126184  dHIT:    1003599  dMISS:    1122585  itACCESS:          0  itHIT:          0  itMISS:          0  dtACCESS:          0  dtHIT:          0  dtMISS:          0
cpu0_L2C WRITE        ACCESS:     287582  HIT:     286212  MISS:       1370  iACCESS:          0  iHIT:          0  iMISS:          0  dACCESS:     287582  dHIT:     286212  dMISS:       1370  itACCESS:          0  itHIT:          0  itMISS:          0  dtACCESS:          0  dtHIT:          0  dtMISS:          0
cpu0_L2C TRANSLATION  ACCESS:     192199  HIT:      25763  MISS:     166436  iACCESS:          0  iHIT:          0  iMISS:          0  dACCESS:          0  dHIT:          0  dMISS:          0  itACCESS:      52238  itHIT:       9493  itMISS:      42745  dtACCESS:     139961  dtHIT:      16270  dtMISS:     123691
cpu0_L2C PREFETCH  REQUESTED:    1392083  ISSUED:    1392083  CROSSED:          0  USEFUL:     314236  USELESS:     233045
cpu0_L2C AVERAGE iMISS LATENCY: 24.4456 cycles
cpu0_L2C AVERAGE dMISS LATENCY: 45.5076 cycles
cpu0_L2C AVERAGE itMISS LATENCY: 2.01957 cycles
cpu0_L2C AVERAGE dtMISS LATENCY: 5.36958 cycles
cpu0_L2C PAGE CROSSINGS (TLB HIT):         0 
cpu0_L2C PAGE CROSSINGS (TLB MISS):         0 
cpu0_L2C AVERAGE MISS LATENCY: 77.3424 cycles
LLC TOTAL       ACCESS:    2958072  HIT:    1879498  MISS:    1078574  iACCESS:    1051369  iHIT:     707014  iMISS:     344355  dACCESS:    1740267  dHIT:    1109386  dMISS:     630881  itACCESS:      42745  itHIT:      13108  itMISS:      29637  dtACCESS:     123691  dtHIT:      49990  dtMISS:      73701
LLC LOAD         ACCESS:     685915  HIT:     453876  MISS:     232039  iACCESS:     235317  iHIT:     157681  iMISS:      77636  dACCESS:     450598  dHIT:     296195  dMISS:     154403  itACCESS:          0  itHIT:          0  itMISS:          0  dtACCESS:          0  dtHIT:          0  dtMISS:          0
LLC RFO          ACCESS:      83592  HIT:      42805  MISS:      40787  iACCESS:          0  iHIT:          0  iMISS:          0  dACCESS:      83592  dHIT:      42805  dMISS:      40787  itACCESS:          0  itHIT:          0  itMISS:          0  dtACCESS:          0  dtHIT:          0  dtMISS:          0
LLC PREFETCH     ACCESS:    1886131  HIT:    1189932  MISS:     696199  iACCESS:     816052  iHIT:     549333  iMISS:     266719  dACCESS:    1070079  dHIT:     640599  dMISS:     429480  itACCESS:          0  itHIT:          0  itMISS:          0  dtACCESS:          0  dtHIT:          0  dtMISS:          0
LLC WRITE        ACCESS:     135998  HIT:     129787  MISS:       6211  iACCESS:          0  iHIT:          0  iMISS:          0  dACCESS:     135998  dHIT:     129787  dMISS:       6211  itACCESS:          0  itHIT:          0  itMISS:          0  dtACCESS:          0  dtHIT:          0  dtMISS:          0
LLC TRANSLATION  ACCESS:     166436  HIT:      63098  MISS:     103338  iACCESS:          0  iHIT:          0  iMISS:          0  dACCESS:          0  dHIT:          0  dMISS:          0  itACCESS:      42745  itHIT:      13108  itMISS:      29637  dtACCESS:     123691  dtHIT:      49990  dtMISS:      73701
LLC PREFETCH  REQUESTED:          0  ISSUED:          0  CROSSED:          0  USEFUL:          0  USELESS:          0
LLC AVERAGE iMISS LATENCY: 47.5188 cycles
LLC AVERAGE dMISS LATENCY: 95.0592 cycles
LLC AVERAGE itMISS LATENCY: 4.71388 cycles
LLC AVERAGE dtMISS LATENCY: 12.361 cycles
LLC PAGE CROSSINGS (TLB HIT):         0 
LLC PAGE CROSSINGS (TLB MISS):         0 
LLC AVERAGE MISS LATENCY: 159.653 cycles

PageTableWalker TOTAL       ACCESS:      82322  
PageTableWalker AVERAGE LATENCY: 5.18192 cycles
PageTableWalker TOTAL LATENCY: 426586 cycles

DRAM Statistics
Channel 0
 RQ ROW_BUFFER_HIT:     267691
  ROW_BUFFER_MISS:     804622
 AVG DBUS CONGESTED CYCLE:    3.61999
 WQ ROW_BUFFER_HIT:      22088
  ROW_BUFFER_MISS:      21594  FULL:          0

