last_page:0x200000000000000
VMEM_RES_CAP:0x100000
PAGE_SIZE:4096
LOG2_PAGE_SIZE:12
LOG2_PAGE_TABLE_SIZE:9
page_table_levels:5
WARNING: physical memory size is smaller than virtual memory size
FDiP enabled with aggresivity 16

*** ChampSim Multicore Out-of-Order Simulator ***

Warmup Instructions: 50000000
Simulation Instructions: 100000000
Number of CPUs: 1
Small page size: 4096
Large page size: 2097152

CPU 0 Bimodal branch predictor
Basic BTB sets: 1024 ways: 8 indirect buffer size: 4096 RAS size: 64
Instruction page size distrubution: 0
Loading instruction page size distribution from /home/bsc/bsc018186/scratch/itp_asplos25_AE/dump/srv41_ap.pdst
Data page size distrubution: 0
Loading data page size distribution from /home/bsc/bsc018186/scratch/itp_asplos25_AE/dump/srv41_ap.pdst
cpu0_L2C IP-based stride prefetcher
cpu0_L1D next line prefetcher
CHiRPing...
cpu0_L1I next line prefetcher
Off-chip DRAM Size: 4 GiB Channels: 1 Width: 64-bit Data Rate: 3200 MT/s
Heartbeat CPU 0 instructions: 10000000 cycles: 2500161 heartbeat IPC: 3.99975 cumulative IPC: 3.99975 (Simulation time: 0 hr 0 min 39 sec) 
Heartbeat CPU 0 instructions: 20000003 cycles: 5000208 heartbeat IPC: 3.99993 cumulative IPC: 3.99984 (Simulation time: 0 hr 1 min 19 sec) 
Heartbeat CPU 0 instructions: 30000001 cycles: 7500241 heartbeat IPC: 3.99995 cumulative IPC: 3.99988 (Simulation time: 0 hr 2 min 1 sec) 
Heartbeat CPU 0 instructions: 40000001 cycles: 10000284 heartbeat IPC: 3.99994 cumulative IPC: 3.99989 (Simulation time: 0 hr 2 min 42 sec) 
Heartbeat CPU 0 instructions: 50000003 cycles: 12500292 heartbeat IPC: 3.99999 cumulative IPC: 3.99991 (Simulation time: 0 hr 3 min 25 sec) 
Warmup finished CPU 0 instructions: 50000003 cycles: 12500293 cumulative IPC: 3.99991 (Simulation time: 0 hr 3 min 25 sec) 

Warmup complete CPU 0 instructions: 50000003 cycles: 12500293 (Simulation time: 0 hr 3 min 25 sec) 

Heartbeat CPU 0 instructions: 60000004 cycles: 30898410 heartbeat IPC: 0.543534 cumulative IPC: 0.543534 (Simulation time: 0 hr 4 min 37 sec) 
Heartbeat CPU 0 instructions: 70000003 cycles: 48622370 heartbeat IPC: 0.564208 cumulative IPC: 0.553679 (Simulation time: 0 hr 5 min 50 sec) 
Heartbeat CPU 0 instructions: 80000001 cycles: 66844657 heartbeat IPC: 0.548779 cumulative IPC: 0.552036 (Simulation time: 0 hr 7 min 2 sec) 
Heartbeat CPU 0 instructions: 90000003 cycles: 86054372 heartbeat IPC: 0.520571 cumulative IPC: 0.543818 (Simulation time: 0 hr 8 min 16 sec) 
Heartbeat CPU 0 instructions: 100000002 cycles: 103863789 heartbeat IPC: 0.561501 cumulative IPC: 0.547265 (Simulation time: 0 hr 9 min 28 sec) 
*** Reached end of trace: /gpfs/projects/bsc18/MN4/bsc18/romol/ChampSim/traces/qualcomm_srv/srv41_ap.champsimtrace.xz
Heartbeat CPU 0 instructions: 110000003 cycles: 122206075 heartbeat IPC: 0.545189 cumulative IPC: 0.546918 (Simulation time: 0 hr 10 min 40 sec) 
Heartbeat CPU 0 instructions: 120000001 cycles: 140645941 heartbeat IPC: 0.542304 cumulative IPC: 0.546254 (Simulation time: 0 hr 11 min 51 sec) 
Heartbeat CPU 0 instructions: 130000002 cycles: 158359333 heartbeat IPC: 0.564545 cumulative IPC: 0.548475 (Simulation time: 0 hr 13 min 2 sec) 
Heartbeat CPU 0 instructions: 140000004 cycles: 176622954 heartbeat IPC: 0.547537 cumulative IPC: 0.548371 (Simulation time: 0 hr 14 min 15 sec) 
Heartbeat CPU 0 instructions: 150000002 cycles: 194610370 heartbeat IPC: 0.555945 cumulative IPC: 0.549119 (Simulation time: 0 hr 15 min 27 sec) 
Simulation finished CPU 0 instructions: 100000004 cycles: 182110079 cumulative IPC: 0.549119 (Simulation time: 0 hr 15 min 27 sec) 

Simulation complete CPU 0 instructions: 100000004 cycles: 182110079 (Simulation time: 0 hr 15 min 27 sec) 


ChampSim completed all CPUs

Saving instructions large page distribution to /home/bsc/bsc018186/scratch/itp_asplos25_AE/dump/srv41_ap.pdst...
Saving data large page distribution to /home/bsc/bsc018186/scratch/itp_asplos25_AE/dump/srv41_ap.pdst...
=== Simulation ===
CPU 0 runs /gpfs/projects/bsc18/MN4/bsc18/romol/ChampSim/traces/qualcomm_srv/srv41_ap.champsimtrace.xz

Region of Interest Statistics

CPU 0 cumulative IPC: 0.549119 instructions: 100000004 cycles: 182110079
CPU 0 Branch Prediction Accuracy: 80.3925% MPKI: 35.4392 Average ROB Occupancy at Mispredict: 10.2993
Branch type MPKI
BRANCH_DIRECT_JUMP: 1.31902
BRANCH_INDIRECT: 17.7313
BRANCH_CONDITIONAL: 11.5202
BRANCH_DIRECT_CALL: 2.49591
BRANCH_INDIRECT_CALL: 0.6704
BRANCH_RETURN: 1.70236

Instructions large pages: 0
Instructions small pages: 5905
Large page distribution for instructions: 0%

Data large pages: 0
Data small pages: 4859
Large page distribution for data: 0%

cpu0_L1I TOTAL       ACCESS:   36240318  HIT:   27846666  MISS:    8393652  iACCESS:   36240318  iHIT:   27846666  iMISS:    8393652  dACCESS:          0  dHIT:          0  dMISS:          0  itACCESS:          0  itHIT:          0  itMISS:          0  dtACCESS:          0  dtHIT:          0  dtMISS:          0
cpu0_L1I LOAD         ACCESS:   10560139  HIT:    8254017  MISS:    2306122  iACCESS:   10560139  iHIT:    8254017  iMISS:    2306122  dACCESS:          0  dHIT:          0  dMISS:          0  itACCESS:          0  itHIT:          0  itMISS:          0  dtACCESS:          0  dtHIT:          0  dtMISS:          0
cpu0_L1I RFO          ACCESS:          0  HIT:          0  MISS:          0  iACCESS:          0  iHIT:          0  iMISS:          0  dACCESS:          0  dHIT:          0  dMISS:          0  itACCESS:          0  itHIT:          0  itMISS:          0  dtACCESS:          0  dtHIT:          0  dtMISS:          0
cpu0_L1I PREFETCH     ACCESS:   25680179  HIT:   19592649  MISS:    6087530  iACCESS:   25680179  iHIT:   19592649  iMISS:    6087530  dACCESS:          0  dHIT:          0  dMISS:          0  itACCESS:          0  itHIT:          0  itMISS:          0  dtACCESS:          0  dtHIT:          0  dtMISS:          0
cpu0_L1I WRITE        ACCESS:          0  HIT:          0  MISS:          0  iACCESS:          0  iHIT:          0  iMISS:          0  dACCESS:          0  dHIT:          0  dMISS:          0  itACCESS:          0  itHIT:          0  itMISS:          0  dtACCESS:          0  dtHIT:          0  dtMISS:          0
cpu0_L1I TRANSLATION  ACCESS:          0  HIT:          0  MISS:          0  iACCESS:          0  iHIT:          0  iMISS:          0  dACCESS:          0  dHIT:          0  dMISS:          0  itACCESS:          0  itHIT:          0  itMISS:          0  dtACCESS:          0  dtHIT:          0  dtMISS:          0
cpu0_L1I PREFETCH  REQUESTED:   28025745  ISSUED:   28024090  CROSSED:          0  USEFUL:    1990465  USELESS:     652593
cpu0_L1I AVERAGE iMISS LATENCY: 18.7412 cycles
cpu0_L1I AVERAGE dMISS LATENCY: 0 cycles
cpu0_L1I AVERAGE itMISS LATENCY: 0 cycles
cpu0_L1I AVERAGE dtMISS LATENCY: 0 cycles
cpu0_L1I PAGE CROSSINGS (TLB HIT):         0 
cpu0_L1I PAGE CROSSINGS (TLB MISS):         0 
cpu0_L1I AVERAGE MISS LATENCY: 18.7412 cycles
cpu0_ITLB TOTAL       ACCESS:   30206599  HIT:   28264594  MISS:    1942005  iACCESS:   30206599  iHIT:   28264594  iMISS:    1942005  dACCESS:          0  dHIT:          0  dMISS:          0  itACCESS:          0  itHIT:          0  itMISS:          0  dtACCESS:          0  dtHIT:          0  dtMISS:          0
cpu0_ITLB LOAD         ACCESS:   30206599  HIT:   28264594  MISS:    1942005  iACCESS:   30206599  iHIT:   28264594  iMISS:    1942005  dACCESS:          0  dHIT:          0  dMISS:          0  itACCESS:          0  itHIT:          0  itMISS:          0  dtACCESS:          0  dtHIT:          0  dtMISS:          0
cpu0_ITLB RFO          ACCESS:          0  HIT:          0  MISS:          0  iACCESS:          0  iHIT:          0  iMISS:          0  dACCESS:          0  dHIT:          0  dMISS:          0  itACCESS:          0  itHIT:          0  itMISS:          0  dtACCESS:          0  dtHIT:          0  dtMISS:          0
cpu0_ITLB PREFETCH     ACCESS:          0  HIT:          0  MISS:          0  iACCESS:          0  iHIT:          0  iMISS:          0  dACCESS:          0  dHIT:          0  dMISS:          0  itACCESS:          0  itHIT:          0  itMISS:          0  dtACCESS:          0  dtHIT:          0  dtMISS:          0
cpu0_ITLB WRITE        ACCESS:          0  HIT:          0  MISS:          0  iACCESS:          0  iHIT:          0  iMISS:          0  dACCESS:          0  dHIT:          0  dMISS:          0  itACCESS:          0  itHIT:          0  itMISS:          0  dtACCESS:          0  dtHIT:          0  dtMISS:          0
cpu0_ITLB TRANSLATION  ACCESS:          0  HIT:          0  MISS:          0  iACCESS:          0  iHIT:          0  iMISS:          0  dACCESS:          0  dHIT:          0  dMISS:          0  itACCESS:          0  itHIT:          0  itMISS:          0  dtACCESS:          0  dtHIT:          0  dtMISS:          0
cpu0_ITLB PREFETCH  REQUESTED:          0  ISSUED:          0  CROSSED:          0  USEFUL:     327220  USELESS:      65941
cpu0_ITLB AVERAGE iMISS LATENCY: 3.97983 cycles
cpu0_ITLB AVERAGE dMISS LATENCY: 0 cycles
cpu0_ITLB AVERAGE itMISS LATENCY: 0 cycles
cpu0_ITLB AVERAGE dtMISS LATENCY: 0 cycles
cpu0_ITLB PAGE CROSSINGS (TLB HIT):         0 
cpu0_ITLB PAGE CROSSINGS (TLB MISS):         0 
cpu0_ITLB AVERAGE MISS LATENCY: 3.97983 cycles
cpu0_DTLB TOTAL       ACCESS:   27925442  HIT:   25966614  MISS:    1958828  iACCESS:          0  iHIT:          0  iMISS:          0  dACCESS:   27925442  dHIT:   25966614  dMISS:    1958828  itACCESS:          0  itHIT:          0  itMISS:          0  dtACCESS:          0  dtHIT:          0  dtMISS:          0
cpu0_DTLB LOAD         ACCESS:   27925442  HIT:   25966614  MISS:    1958828  iACCESS:          0  iHIT:          0  iMISS:          0  dACCESS:   27925442  dHIT:   25966614  dMISS:    1958828  itACCESS:          0  itHIT:          0  itMISS:          0  dtACCESS:          0  dtHIT:          0  dtMISS:          0
cpu0_DTLB RFO          ACCESS:          0  HIT:          0  MISS:          0  iACCESS:          0  iHIT:          0  iMISS:          0  dACCESS:          0  dHIT:          0  dMISS:          0  itACCESS:          0  itHIT:          0  itMISS:          0  dtACCESS:          0  dtHIT:          0  dtMISS:          0
cpu0_DTLB PREFETCH     ACCESS:          0  HIT:          0  MISS:          0  iACCESS:          0  iHIT:          0  iMISS:          0  dACCESS:          0  dHIT:          0  dMISS:          0  itACCESS:          0  itHIT:          0  itMISS:          0  dtACCESS:          0  dtHIT:          0  dtMISS:          0
cpu0_DTLB WRITE        ACCESS:          0  HIT:          0  MISS:          0  iACCESS:          0  iHIT:          0  iMISS:          0  dACCESS:          0  dHIT:          0  dMISS:          0  itACCESS:          0  itHIT:          0  itMISS:          0  dtACCESS:          0  dtHIT:          0  dtMISS:          0
cpu0_DTLB TRANSLATION  ACCESS:          0  HIT:          0  MISS:          0  iACCESS:          0  iHIT:          0  iMISS:          0  dACCESS:          0  dHIT:          0  dMISS:          0  itACCESS:          0  itHIT:          0  itMISS:          0  dtACCESS:          0  dtHIT:          0  dtMISS:          0
cpu0_DTLB PREFETCH  REQUESTED:          0  ISSUED:          0  CROSSED:          0  USEFUL:          0  USELESS:          0
cpu0_DTLB AVERAGE iMISS LATENCY: 0 cycles
cpu0_DTLB AVERAGE dMISS LATENCY: 11.5085 cycles
cpu0_DTLB AVERAGE itMISS LATENCY: 0 cycles
cpu0_DTLB AVERAGE dtMISS LATENCY: 0 cycles
cpu0_DTLB PAGE CROSSINGS (TLB HIT):         0 
cpu0_DTLB PAGE CROSSINGS (TLB MISS):         0 
cpu0_DTLB AVERAGE MISS LATENCY: 11.5085 cycles
cpu0_STLB TOTAL       ACCESS:    1627075  HIT:    1398857  MISS:     228218  iACCESS:     393173  iHIT:     305956  iMISS:      87217  dACCESS:    1233902  dHIT:    1092901  dMISS:     141001  itACCESS:          0  itHIT:          0  itMISS:          0  dtACCESS:          0  dtHIT:          0  dtMISS:          0
cpu0_STLB LOAD         ACCESS:    1627075  HIT:    1398857  MISS:     228218  iACCESS:     393173  iHIT:     305956  iMISS:      87217  dACCESS:    1233902  dHIT:    1092901  dMISS:     141001  itACCESS:          0  itHIT:          0  itMISS:          0  dtACCESS:          0  dtHIT:          0  dtMISS:          0
cpu0_STLB RFO          ACCESS:          0  HIT:          0  MISS:          0  iACCESS:          0  iHIT:          0  iMISS:          0  dACCESS:          0  dHIT:          0  dMISS:          0  itACCESS:          0  itHIT:          0  itMISS:          0  dtACCESS:          0  dtHIT:          0  dtMISS:          0
cpu0_STLB PREFETCH     ACCESS:          0  HIT:          0  MISS:          0  iACCESS:          0  iHIT:          0  iMISS:          0  dACCESS:          0  dHIT:          0  dMISS:          0  itACCESS:          0  itHIT:          0  itMISS:          0  dtACCESS:          0  dtHIT:          0  dtMISS:          0
cpu0_STLB WRITE        ACCESS:          0  HIT:          0  MISS:          0  iACCESS:          0  iHIT:          0  iMISS:          0  dACCESS:          0  dHIT:          0  dMISS:          0  itACCESS:          0  itHIT:          0  itMISS:          0  dtACCESS:          0  dtHIT:          0  dtMISS:          0
cpu0_STLB TRANSLATION  ACCESS:          0  HIT:          0  MISS:          0  iACCESS:          0  iHIT:          0  iMISS:          0  dACCESS:          0  dHIT:          0  dMISS:          0  itACCESS:          0  itHIT:          0  itMISS:          0  dtACCESS:          0  dtHIT:          0  dtMISS:          0
cpu0_STLB PREFETCH  REQUESTED:          0  ISSUED:          0  CROSSED:          0  USEFUL:          0  USELESS:          0
cpu0_STLB AVERAGE iMISS LATENCY: 20.1336 cycles
cpu0_STLB AVERAGE dMISS LATENCY: 55.6669 cycles
cpu0_STLB AVERAGE itMISS LATENCY: 0 cycles
cpu0_STLB AVERAGE dtMISS LATENCY: 0 cycles
cpu0_STLB PAGE CROSSINGS (TLB HIT):         0 
cpu0_STLB PAGE CROSSINGS (TLB MISS):         0 
cpu0_STLB AVERAGE MISS LATENCY: 75.8005 cycles
cpu0_L1D TOTAL       ACCESS:   42733083  HIT:   38454156  MISS:    4278927  iACCESS:          0  iHIT:          0  iMISS:          0  dACCESS:   42445140  dHIT:   38429741  dMISS:    4015399  itACCESS:      93063  itHIT:      13012  itMISS:      80051  dtACCESS:     194880  dtHIT:      11403  dtMISS:     183477
cpu0_L1D LOAD         ACCESS:   19421438  HIT:   17585567  MISS:    1835871  iACCESS:          0  iHIT:          0  iMISS:          0  dACCESS:   19421438  dHIT:   17585567  dMISS:    1835871  itACCESS:          0  itHIT:          0  itMISS:          0  dtACCESS:          0  dtHIT:          0  dtMISS:          0
cpu0_L1D RFO          ACCESS:          0  HIT:          0  MISS:          0  iACCESS:          0  iHIT:          0  iMISS:          0  dACCESS:          0  dHIT:          0  dMISS:          0  itACCESS:          0  itHIT:          0  itMISS:          0  dtACCESS:          0  dtHIT:          0  dtMISS:          0
cpu0_L1D PREFETCH     ACCESS:   12894478  HIT:   11159977  MISS:    1734501  iACCESS:          0  iHIT:          0  iMISS:          0  dACCESS:   12894478  dHIT:   11159977  dMISS:    1734501  itACCESS:          0  itHIT:          0  itMISS:          0  dtACCESS:          0  dtHIT:          0  dtMISS:          0
cpu0_L1D WRITE        ACCESS:   10129224  HIT:    9684197  MISS:     445027  iACCESS:          0  iHIT:          0  iMISS:          0  dACCESS:   10129224  dHIT:    9684197  dMISS:     445027  itACCESS:          0  itHIT:          0  itMISS:          0  dtACCESS:          0  dtHIT:          0  dtMISS:          0
cpu0_L1D TRANSLATION  ACCESS:     287943  HIT:      24415  MISS:     263528  iACCESS:          0  iHIT:          0  iMISS:          0  dACCESS:          0  dHIT:          0  dMISS:          0  itACCESS:      93063  itHIT:      13012  itMISS:      80051  dtACCESS:     194880  dtHIT:      11403  dtMISS:     183477
cpu0_L1D PREFETCH  REQUESTED:   19421438  ISSUED:   17361109  CROSSED:          0  USEFUL:     311040  USELESS:     702281
cpu0_L1D AVERAGE iMISS LATENCY: 0 cycles
cpu0_L1D AVERAGE dMISS LATENCY: 38.183 cycles
cpu0_L1D AVERAGE itMISS LATENCY: 0.900107 cycles
cpu0_L1D AVERAGE dtMISS LATENCY: 2.51834 cycles
cpu0_L1D PAGE CROSSINGS (TLB HIT):         0 
cpu0_L1D PAGE CROSSINGS (TLB MISS):         0 
cpu0_L1D AVERAGE MISS LATENCY: 41.6014 cycles
cpu0_L2C TOTAL       ACCESS:    7278801  HIT:    1639319  MISS:    5639482  iACCESS:    3379057  iHIT:     832587  iMISS:    2546470  dACCESS:    3642810  dHIT:     646104  dMISS:    2996706  itACCESS:      80051  itHIT:      57472  itMISS:      22579  dtACCESS:     176883  dtHIT:     103156  dtMISS:      73727
cpu0_L2C LOAD         ACCESS:    1724370  HIT:     265272  MISS:    1459098  iACCESS:     773178  iHIT:     136027  iMISS:     637151  dACCESS:     951192  dHIT:     129245  dMISS:     821947  itACCESS:          0  itHIT:          0  itMISS:          0  dtACCESS:          0  dtHIT:          0  dtMISS:          0
cpu0_L2C RFO          ACCESS:     163280  HIT:      44812  MISS:     118468  iACCESS:          0  iHIT:          0  iMISS:          0  dACCESS:     163280  dHIT:      44812  dMISS:     118468  itACCESS:          0  itHIT:          0  itMISS:          0  dtACCESS:          0  dtHIT:          0  dtMISS:          0
cpu0_L2C PREFETCH     ACCESS:    4860892  HIT:    1043801  MISS:    3817091  iACCESS:    2605879  iHIT:     696560  iMISS:    1909319  dACCESS:    2255013  dHIT:     347241  dMISS:    1907772  itACCESS:          0  itHIT:          0  itMISS:          0  dtACCESS:          0  dtHIT:          0  dtMISS:          0
cpu0_L2C WRITE        ACCESS:     273325  HIT:     124806  MISS:     148519  iACCESS:          0  iHIT:          0  iMISS:          0  dACCESS:     273325  dHIT:     124806  dMISS:     148519  itACCESS:          0  itHIT:          0  itMISS:          0  dtACCESS:          0  dtHIT:          0  dtMISS:          0
cpu0_L2C TRANSLATION  ACCESS:     256934  HIT:     160628  MISS:      96306  iACCESS:          0  iHIT:          0  iMISS:          0  dACCESS:          0  dHIT:          0  dMISS:          0  itACCESS:      80051  itHIT:      57472  itMISS:      22579  dtACCESS:     176883  dtHIT:     103156  dtMISS:      73727
cpu0_L2C PREFETCH  REQUESTED:    1508685  ISSUED:    1508685  CROSSED:          0  USEFUL:     428342  USELESS:     419577
cpu0_L2C AVERAGE iMISS LATENCY: 22.5828 cycles
cpu0_L2C AVERAGE dMISS LATENCY: 36.4948 cycles
cpu0_L2C AVERAGE itMISS LATENCY: 0.550857 cycles
cpu0_L2C AVERAGE dtMISS LATENCY: 1.61422 cycles
cpu0_L2C PAGE CROSSINGS (TLB HIT):         0 
cpu0_L2C PAGE CROSSINGS (TLB MISS):         0 
cpu0_L2C AVERAGE MISS LATENCY: 61.2426 cycles
LLC TOTAL       ACCESS:    5449807  HIT:    3905698  MISS:    1544109  iACCESS:    2469180  iHIT:    1924473  iMISS:     544707  dACCESS:    2884321  dHIT:    1941410  dMISS:     942911  itACCESS:      22579  itHIT:       7315  itMISS:      15264  dtACCESS:      73727  dtHIT:      32500  dtMISS:      41227
LLC LOAD         ACCESS:    1452054  HIT:    1109054  MISS:     343000  iACCESS:     635844  iHIT:     523585  iMISS:     112259  dACCESS:     816210  dHIT:     585469  dMISS:     230741  itACCESS:          0  itHIT:          0  itMISS:          0  dtACCESS:          0  dtHIT:          0  dtMISS:          0
LLC RFO          ACCESS:     118443  HIT:      65789  MISS:      52654  iACCESS:          0  iHIT:          0  iMISS:          0  dACCESS:     118443  dHIT:      65789  dMISS:      52654  itACCESS:          0  itHIT:          0  itMISS:          0  dtACCESS:          0  dtHIT:          0  dtMISS:          0
LLC PREFETCH     ACCESS:    3638329  HIT:    2557118  MISS:    1081211  iACCESS:    1833336  iHIT:    1400888  iMISS:     432448  dACCESS:    1804993  dHIT:    1156230  dMISS:     648763  itACCESS:          0  itHIT:          0  itMISS:          0  dtACCESS:          0  dtHIT:          0  dtMISS:          0
LLC WRITE        ACCESS:     144675  HIT:     133922  MISS:      10753  iACCESS:          0  iHIT:          0  iMISS:          0  dACCESS:     144675  dHIT:     133922  dMISS:      10753  itACCESS:          0  itHIT:          0  itMISS:          0  dtACCESS:          0  dtHIT:          0  dtMISS:          0
LLC TRANSLATION  ACCESS:      96306  HIT:      39815  MISS:      56491  iACCESS:          0  iHIT:          0  iMISS:          0  dACCESS:          0  dHIT:          0  dMISS:          0  itACCESS:      22579  itHIT:       7315  itMISS:      15264  dtACCESS:      73727  dtHIT:      32500  dtMISS:      41227
LLC PREFETCH  REQUESTED:          0  ISSUED:          0  CROSSED:          0  USEFUL:          0  USELESS:          0
LLC AVERAGE iMISS LATENCY: 51.5238 cycles
LLC AVERAGE dMISS LATENCY: 100.061 cycles
LLC AVERAGE itMISS LATENCY: 1.72478 cycles
LLC AVERAGE dtMISS LATENCY: 4.96291 cycles
LLC PAGE CROSSINGS (TLB HIT):         0 
LLC PAGE CROSSINGS (TLB MISS):         0 
LLC AVERAGE MISS LATENCY: 158.273 cycles

PageTableWalker TOTAL       ACCESS:     115535  
PageTableWalker AVERAGE LATENCY: 4.22617 cycles
PageTableWalker TOTAL LATENCY: 488270 cycles

DRAM Statistics
Channel 0
 RQ ROW_BUFFER_HIT:     458355
  ROW_BUFFER_MISS:    1060951
 AVG DBUS CONGESTED CYCLE:     3.6362
 WQ ROW_BUFFER_HIT:      29670
  ROW_BUFFER_MISS:      23599  FULL:          0

