last_page:0x200000000000000
VMEM_RES_CAP:0x100000
PAGE_SIZE:4096
LOG2_PAGE_SIZE:12
LOG2_PAGE_TABLE_SIZE:9
page_table_levels:5
WARNING: physical memory size is smaller than virtual memory size
FDiP enabled with aggresivity 16

*** ChampSim Multicore Out-of-Order Simulator ***

Warmup Instructions: 50000000
Simulation Instructions: 100000000
Number of CPUs: 1
Small page size: 4096
Large page size: 2097152

CPU 0 Bimodal branch predictor
Basic BTB sets: 1024 ways: 8 indirect buffer size: 4096 RAS size: 64
Instruction page size distrubution: 0
Loading instruction page size distribution from /home/bsc/bsc018186/scratch/itp_asplos25_AE/dump/srv44_ap.pdst
Data page size distrubution: 0
Loading data page size distribution from /home/bsc/bsc018186/scratch/itp_asplos25_AE/dump/srv44_ap.pdst
cpu0_L2C IP-based stride prefetcher
cpu0_L2C is using PTP replacement policy:
	TLB_STRESS_THRESHOLD:0
	PTE_EVICTION_RATIO:0
cpu0_L1D next line prefetcher
CHiRPing...
cpu0_L1I next line prefetcher
Off-chip DRAM Size: 4 GiB Channels: 1 Width: 64-bit Data Rate: 3200 MT/s
Heartbeat CPU 0 instructions: 10000000 cycles: 2500191 heartbeat IPC: 3.9997 cumulative IPC: 3.9997 (Simulation time: 0 hr 0 min 38 sec) 
Heartbeat CPU 0 instructions: 20000003 cycles: 5000286 heartbeat IPC: 3.99985 cumulative IPC: 3.99978 (Simulation time: 0 hr 1 min 18 sec) 
Heartbeat CPU 0 instructions: 30000002 cycles: 7500304 heartbeat IPC: 3.99998 cumulative IPC: 3.99984 (Simulation time: 0 hr 1 min 59 sec) 
Heartbeat CPU 0 instructions: 40000001 cycles: 10000337 heartbeat IPC: 3.99995 cumulative IPC: 3.99987 (Simulation time: 0 hr 2 min 39 sec) 
Heartbeat CPU 0 instructions: 50000002 cycles: 12500371 heartbeat IPC: 3.99995 cumulative IPC: 3.99989 (Simulation time: 0 hr 3 min 20 sec) 
Warmup finished CPU 0 instructions: 50000002 cycles: 12500372 cumulative IPC: 3.99989 (Simulation time: 0 hr 3 min 20 sec) 

Warmup complete CPU 0 instructions: 50000002 cycles: 12500372 (Simulation time: 0 hr 3 min 20 sec) 

Heartbeat CPU 0 instructions: 60000003 cycles: 29139668 heartbeat IPC: 0.600987 cumulative IPC: 0.600988 (Simulation time: 0 hr 4 min 26 sec) 
Heartbeat CPU 0 instructions: 70000000 cycles: 44732195 heartbeat IPC: 0.641333 cumulative IPC: 0.620505 (Simulation time: 0 hr 5 min 32 sec) 
Heartbeat CPU 0 instructions: 80000000 cycles: 60383091 heartbeat IPC: 0.638942 cumulative IPC: 0.626531 (Simulation time: 0 hr 6 min 37 sec) 
Heartbeat CPU 0 instructions: 90000002 cycles: 75513780 heartbeat IPC: 0.660909 cumulative IPC: 0.634786 (Simulation time: 0 hr 7 min 44 sec) 
Heartbeat CPU 0 instructions: 100000003 cycles: 90806345 heartbeat IPC: 0.653913 cumulative IPC: 0.638521 (Simulation time: 0 hr 8 min 50 sec) 
*** Reached end of trace: /gpfs/projects/bsc18/MN4/bsc18/romol/ChampSim/traces/qualcomm_srv/srv44_ap.champsimtrace.xz
Heartbeat CPU 0 instructions: 110000002 cycles: 106621455 heartbeat IPC: 0.632307 cumulative IPC: 0.637477 (Simulation time: 0 hr 9 min 58 sec) 
Heartbeat CPU 0 instructions: 120000000 cycles: 123095819 heartbeat IPC: 0.607004 cumulative IPC: 0.632938 (Simulation time: 0 hr 11 min 7 sec) 
Heartbeat CPU 0 instructions: 130000000 cycles: 138081037 heartbeat IPC: 0.667325 cumulative IPC: 0.637041 (Simulation time: 0 hr 12 min 13 sec) 
Heartbeat CPU 0 instructions: 140000001 cycles: 152712209 heartbeat IPC: 0.683473 cumulative IPC: 0.641886 (Simulation time: 0 hr 13 min 19 sec) 
Heartbeat CPU 0 instructions: 150000000 cycles: 168290944 heartbeat IPC: 0.641901 cumulative IPC: 0.641888 (Simulation time: 0 hr 14 min 26 sec) 
Simulation finished CPU 0 instructions: 100000001 cycles: 155790574 cumulative IPC: 0.641888 (Simulation time: 0 hr 14 min 26 sec) 

Simulation complete CPU 0 instructions: 100000001 cycles: 155790574 (Simulation time: 0 hr 14 min 26 sec) 


ChampSim completed all CPUs

Saving instructions large page distribution to /home/bsc/bsc018186/scratch/itp_asplos25_AE/dump/srv44_ap.pdst...
Saving data large page distribution to /home/bsc/bsc018186/scratch/itp_asplos25_AE/dump/srv44_ap.pdst...
=== Simulation ===
CPU 0 runs /gpfs/projects/bsc18/MN4/bsc18/romol/ChampSim/traces/qualcomm_srv/srv44_ap.champsimtrace.xz

Region of Interest Statistics

CPU 0 cumulative IPC: 0.641888 instructions: 100000001 cycles: 155790574
CPU 0 Branch Prediction Accuracy: 82.6949% MPKI: 31.0017 Average ROB Occupancy at Mispredict: 13.1433
Branch type MPKI
BRANCH_DIRECT_JUMP: 1.04265
BRANCH_INDIRECT: 15.9928
BRANCH_CONDITIONAL: 10.2125
BRANCH_DIRECT_CALL: 1.88784
BRANCH_INDIRECT_CALL: 0.51582
BRANCH_RETURN: 1.35007

Instructions large pages: 0
Instructions small pages: 962
Large page distribution for instructions: 0%

Data large pages: 0
Data small pages: 9382
Large page distribution for data: 0%

cpu0_L1I TOTAL       ACCESS:   35194639  HIT:   27332831  MISS:    7861808  iACCESS:   35194639  iHIT:   27332831  iMISS:    7861808  dACCESS:          0  dHIT:          0  dMISS:          0  itACCESS:          0  itHIT:          0  itMISS:          0  dtACCESS:          0  dtHIT:          0  dtMISS:          0
cpu0_L1I LOAD         ACCESS:   10331546  HIT:    8125236  MISS:    2206310  iACCESS:   10331546  iHIT:    8125236  iMISS:    2206310  dACCESS:          0  dHIT:          0  dMISS:          0  itACCESS:          0  itHIT:          0  itMISS:          0  dtACCESS:          0  dtHIT:          0  dtMISS:          0
cpu0_L1I RFO          ACCESS:          0  HIT:          0  MISS:          0  iACCESS:          0  iHIT:          0  iMISS:          0  dACCESS:          0  dHIT:          0  dMISS:          0  itACCESS:          0  itHIT:          0  itMISS:          0  dtACCESS:          0  dtHIT:          0  dtMISS:          0
cpu0_L1I PREFETCH     ACCESS:   24863093  HIT:   19207595  MISS:    5655498  iACCESS:   24863093  iHIT:   19207595  iMISS:    5655498  dACCESS:          0  dHIT:          0  dMISS:          0  itACCESS:          0  itHIT:          0  itMISS:          0  dtACCESS:          0  dtHIT:          0  dtMISS:          0
cpu0_L1I WRITE        ACCESS:          0  HIT:          0  MISS:          0  iACCESS:          0  iHIT:          0  iMISS:          0  dACCESS:          0  dHIT:          0  dMISS:          0  itACCESS:          0  itHIT:          0  itMISS:          0  dtACCESS:          0  dtHIT:          0  dtMISS:          0
cpu0_L1I TRANSLATION  ACCESS:          0  HIT:          0  MISS:          0  iACCESS:          0  iHIT:          0  iMISS:          0  dACCESS:          0  dHIT:          0  dMISS:          0  itACCESS:          0  itHIT:          0  itMISS:          0  dtACCESS:          0  dtHIT:          0  dtMISS:          0
cpu0_L1I PREFETCH  REQUESTED:   27404744  ISSUED:   27404744  CROSSED:          0  USEFUL:    1933558  USELESS:     627862
cpu0_L1I AVERAGE iMISS LATENCY: 12.8959 cycles
cpu0_L1I AVERAGE dMISS LATENCY: 0 cycles
cpu0_L1I AVERAGE itMISS LATENCY: 0 cycles
cpu0_L1I AVERAGE dtMISS LATENCY: 0 cycles
cpu0_L1I PAGE CROSSINGS (TLB HIT):         0 
cpu0_L1I PAGE CROSSINGS (TLB MISS):         0 
cpu0_L1I AVERAGE MISS LATENCY: 12.8959 cycles
cpu0_ITLB TOTAL       ACCESS:   29384935  HIT:   27437992  MISS:    1946943  iACCESS:   29384935  iHIT:   27437992  iMISS:    1946943  dACCESS:          0  dHIT:          0  dMISS:          0  itACCESS:          0  itHIT:          0  itMISS:          0  dtACCESS:          0  dtHIT:          0  dtMISS:          0
cpu0_ITLB LOAD         ACCESS:   29384935  HIT:   27437992  MISS:    1946943  iACCESS:   29384935  iHIT:   27437992  iMISS:    1946943  dACCESS:          0  dHIT:          0  dMISS:          0  itACCESS:          0  itHIT:          0  itMISS:          0  dtACCESS:          0  dtHIT:          0  dtMISS:          0
cpu0_ITLB RFO          ACCESS:          0  HIT:          0  MISS:          0  iACCESS:          0  iHIT:          0  iMISS:          0  dACCESS:          0  dHIT:          0  dMISS:          0  itACCESS:          0  itHIT:          0  itMISS:          0  dtACCESS:          0  dtHIT:          0  dtMISS:          0
cpu0_ITLB PREFETCH     ACCESS:          0  HIT:          0  MISS:          0  iACCESS:          0  iHIT:          0  iMISS:          0  dACCESS:          0  dHIT:          0  dMISS:          0  itACCESS:          0  itHIT:          0  itMISS:          0  dtACCESS:          0  dtHIT:          0  dtMISS:          0
cpu0_ITLB WRITE        ACCESS:          0  HIT:          0  MISS:          0  iACCESS:          0  iHIT:          0  iMISS:          0  dACCESS:          0  dHIT:          0  dMISS:          0  itACCESS:          0  itHIT:          0  itMISS:          0  dtACCESS:          0  dtHIT:          0  dtMISS:          0
cpu0_ITLB TRANSLATION  ACCESS:          0  HIT:          0  MISS:          0  iACCESS:          0  iHIT:          0  iMISS:          0  dACCESS:          0  dHIT:          0  dMISS:          0  itACCESS:          0  itHIT:          0  itMISS:          0  dtACCESS:          0  dtHIT:          0  dtMISS:          0
cpu0_ITLB PREFETCH  REQUESTED:          0  ISSUED:          0  CROSSED:          0  USEFUL:     316519  USELESS:      64485
cpu0_ITLB AVERAGE iMISS LATENCY: 5.28372 cycles
cpu0_ITLB AVERAGE dMISS LATENCY: 0 cycles
cpu0_ITLB AVERAGE itMISS LATENCY: 0 cycles
cpu0_ITLB AVERAGE dtMISS LATENCY: 0 cycles
cpu0_ITLB PAGE CROSSINGS (TLB HIT):         0 
cpu0_ITLB PAGE CROSSINGS (TLB MISS):         0 
cpu0_ITLB AVERAGE MISS LATENCY: 5.28372 cycles
cpu0_DTLB TOTAL       ACCESS:   27831699  HIT:   26036307  MISS:    1795392  iACCESS:          0  iHIT:          0  iMISS:          0  dACCESS:   27831699  dHIT:   26036307  dMISS:    1795392  itACCESS:          0  itHIT:          0  itMISS:          0  dtACCESS:          0  dtHIT:          0  dtMISS:          0
cpu0_DTLB LOAD         ACCESS:   27831699  HIT:   26036307  MISS:    1795392  iACCESS:          0  iHIT:          0  iMISS:          0  dACCESS:   27831699  dHIT:   26036307  dMISS:    1795392  itACCESS:          0  itHIT:          0  itMISS:          0  dtACCESS:          0  dtHIT:          0  dtMISS:          0
cpu0_DTLB RFO          ACCESS:          0  HIT:          0  MISS:          0  iACCESS:          0  iHIT:          0  iMISS:          0  dACCESS:          0  dHIT:          0  dMISS:          0  itACCESS:          0  itHIT:          0  itMISS:          0  dtACCESS:          0  dtHIT:          0  dtMISS:          0
cpu0_DTLB PREFETCH     ACCESS:          0  HIT:          0  MISS:          0  iACCESS:          0  iHIT:          0  iMISS:          0  dACCESS:          0  dHIT:          0  dMISS:          0  itACCESS:          0  itHIT:          0  itMISS:          0  dtACCESS:          0  dtHIT:          0  dtMISS:          0
cpu0_DTLB WRITE        ACCESS:          0  HIT:          0  MISS:          0  iACCESS:          0  iHIT:          0  iMISS:          0  dACCESS:          0  dHIT:          0  dMISS:          0  itACCESS:          0  itHIT:          0  itMISS:          0  dtACCESS:          0  dtHIT:          0  dtMISS:          0
cpu0_DTLB TRANSLATION  ACCESS:          0  HIT:          0  MISS:          0  iACCESS:          0  iHIT:          0  iMISS:          0  dACCESS:          0  dHIT:          0  dMISS:          0  itACCESS:          0  itHIT:          0  itMISS:          0  dtACCESS:          0  dtHIT:          0  dtMISS:          0
cpu0_DTLB PREFETCH  REQUESTED:          0  ISSUED:          0  CROSSED:          0  USEFUL:          0  USELESS:          0
cpu0_DTLB AVERAGE iMISS LATENCY: 0 cycles
cpu0_DTLB AVERAGE dMISS LATENCY: 16.5307 cycles
cpu0_DTLB AVERAGE itMISS LATENCY: 0 cycles
cpu0_DTLB AVERAGE dtMISS LATENCY: 0 cycles
cpu0_DTLB PAGE CROSSINGS (TLB HIT):         0 
cpu0_DTLB PAGE CROSSINGS (TLB MISS):         0 
cpu0_DTLB AVERAGE MISS LATENCY: 16.5307 cycles
cpu0_STLB TOTAL       ACCESS:    1465302  HIT:    1295948  MISS:     169354  iACCESS:     381009  iHIT:     322068  iMISS:      58941  dACCESS:    1084293  dHIT:     973880  dMISS:     110413  itACCESS:          0  itHIT:          0  itMISS:          0  dtACCESS:          0  dtHIT:          0  dtMISS:          0
cpu0_STLB LOAD         ACCESS:    1465302  HIT:    1295948  MISS:     169354  iACCESS:     381009  iHIT:     322068  iMISS:      58941  dACCESS:    1084293  dHIT:     973880  dMISS:     110413  itACCESS:          0  itHIT:          0  itMISS:          0  dtACCESS:          0  dtHIT:          0  dtMISS:          0
cpu0_STLB RFO          ACCESS:          0  HIT:          0  MISS:          0  iACCESS:          0  iHIT:          0  iMISS:          0  dACCESS:          0  dHIT:          0  dMISS:          0  itACCESS:          0  itHIT:          0  itMISS:          0  dtACCESS:          0  dtHIT:          0  dtMISS:          0
cpu0_STLB PREFETCH     ACCESS:          0  HIT:          0  MISS:          0  iACCESS:          0  iHIT:          0  iMISS:          0  dACCESS:          0  dHIT:          0  dMISS:          0  itACCESS:          0  itHIT:          0  itMISS:          0  dtACCESS:          0  dtHIT:          0  dtMISS:          0
cpu0_STLB WRITE        ACCESS:          0  HIT:          0  MISS:          0  iACCESS:          0  iHIT:          0  iMISS:          0  dACCESS:          0  dHIT:          0  dMISS:          0  itACCESS:          0  itHIT:          0  itMISS:          0  dtACCESS:          0  dtHIT:          0  dtMISS:          0
cpu0_STLB TRANSLATION  ACCESS:          0  HIT:          0  MISS:          0  iACCESS:          0  iHIT:          0  iMISS:          0  dACCESS:          0  dHIT:          0  dMISS:          0  itACCESS:          0  itHIT:          0  itMISS:          0  dtACCESS:          0  dtHIT:          0  dtMISS:          0
cpu0_STLB PREFETCH  REQUESTED:          0  ISSUED:          0  CROSSED:          0  USEFUL:          0  USELESS:          0
cpu0_STLB AVERAGE iMISS LATENCY: 42.9667 cycles
cpu0_STLB AVERAGE dMISS LATENCY: 124.145 cycles
cpu0_STLB AVERAGE itMISS LATENCY: 0 cycles
cpu0_STLB AVERAGE dtMISS LATENCY: 0 cycles
cpu0_STLB PAGE CROSSINGS (TLB HIT):         0 
cpu0_STLB PAGE CROSSINGS (TLB MISS):         0 
cpu0_STLB AVERAGE MISS LATENCY: 167.112 cycles
cpu0_L1D TOTAL       ACCESS:   41525343  HIT:   38105159  MISS:    3420184  iACCESS:          0  iHIT:          0  iMISS:          0  dACCESS:   41296714  dHIT:   38085096  dMISS:    3211618  itACCESS:      63926  itHIT:       9266  itMISS:      54660  dtACCESS:     164703  dtHIT:      10797  dtMISS:     153906
cpu0_L1D LOAD         ACCESS:   19029195  HIT:   17566269  MISS:    1462926  iACCESS:          0  iHIT:          0  iMISS:          0  dACCESS:   19029195  dHIT:   17566269  dMISS:    1462926  itACCESS:          0  itHIT:          0  itMISS:          0  dtACCESS:          0  dtHIT:          0  dtMISS:          0
cpu0_L1D RFO          ACCESS:          0  HIT:          0  MISS:          0  iACCESS:          0  iHIT:          0  iMISS:          0  dACCESS:          0  dHIT:          0  dMISS:          0  itACCESS:          0  itHIT:          0  itMISS:          0  dtACCESS:          0  dtHIT:          0  dtMISS:          0
cpu0_L1D PREFETCH     ACCESS:   12079525  HIT:   10764064  MISS:    1315461  iACCESS:          0  iHIT:          0  iMISS:          0  dACCESS:   12079525  dHIT:   10764064  dMISS:    1315461  itACCESS:          0  itHIT:          0  itMISS:          0  dtACCESS:          0  dtHIT:          0  dtMISS:          0
cpu0_L1D WRITE        ACCESS:   10187994  HIT:    9754763  MISS:     433231  iACCESS:          0  iHIT:          0  iMISS:          0  dACCESS:   10187994  dHIT:    9754763  dMISS:     433231  itACCESS:          0  itHIT:          0  itMISS:          0  dtACCESS:          0  dtHIT:          0  dtMISS:          0
cpu0_L1D TRANSLATION  ACCESS:     228629  HIT:      20063  MISS:     208566  iACCESS:          0  iHIT:          0  iMISS:          0  dACCESS:          0  dHIT:          0  dMISS:          0  itACCESS:      63926  itHIT:       9266  itMISS:      54660  dtACCESS:     164703  dtHIT:      10797  dtMISS:     153906
cpu0_L1D PREFETCH  REQUESTED:   19029195  ISSUED:   16872818  CROSSED:          0  USEFUL:     307525  USELESS:     699158
cpu0_L1D AVERAGE iMISS LATENCY: 0 cycles
cpu0_L1D AVERAGE dMISS LATENCY: 33.6044 cycles
cpu0_L1D AVERAGE itMISS LATENCY: 1.98007 cycles
cpu0_L1D AVERAGE dtMISS LATENCY: 5.46463 cycles
cpu0_L1D PAGE CROSSINGS (TLB HIT):         0 
cpu0_L1D PAGE CROSSINGS (TLB MISS):         0 
cpu0_L1D AVERAGE MISS LATENCY: 41.049 cycles
cpu0_L2C TOTAL       ACCESS:    7004344  HIT:    4040755  MISS:    2963589  iACCESS:    3309671  iHIT:    2208512  iMISS:    1101159  dACCESS:    3494520  dHIT:    1805723  dMISS:    1688797  itACCESS:      54660  itHIT:       9270  itMISS:      45390  dtACCESS:     145493  dtHIT:      17250  dtMISS:     128243
cpu0_L2C LOAD         ACCESS:    1715066  HIT:    1033309  MISS:     681757  iACCESS:     788594  iHIT:     555004  iMISS:     233590  dACCESS:     926472  dHIT:     478305  dMISS:     448167  itACCESS:          0  itHIT:          0  itMISS:          0  dtACCESS:          0  dtHIT:          0  dtMISS:          0
cpu0_L2C RFO          ACCESS:     158579  HIT:      71622  MISS:      86957  iACCESS:          0  iHIT:          0  iMISS:          0  dACCESS:     158579  dHIT:      71622  dMISS:      86957  itACCESS:          0  itHIT:          0  itMISS:          0  dtACCESS:          0  dtHIT:          0  dtMISS:          0
cpu0_L2C PREFETCH     ACCESS:    4648605  HIT:    2629353  MISS:    2019252  iACCESS:    2521077  iHIT:    1653508  iMISS:     867569  dACCESS:    2127528  dHIT:     975845  dMISS:    1151683  itACCESS:          0  itHIT:          0  itMISS:          0  dtACCESS:          0  dtHIT:          0  dtMISS:          0
cpu0_L2C WRITE        ACCESS:     281941  HIT:     279951  MISS:       1990  iACCESS:          0  iHIT:          0  iMISS:          0  dACCESS:     281941  dHIT:     279951  dMISS:       1990  itACCESS:          0  itHIT:          0  itMISS:          0  dtACCESS:          0  dtHIT:          0  dtMISS:          0
cpu0_L2C TRANSLATION  ACCESS:     200153  HIT:      26520  MISS:     173633  iACCESS:          0  iHIT:          0  iMISS:          0  dACCESS:          0  dHIT:          0  dMISS:          0  itACCESS:      54660  itHIT:       9270  itMISS:      45390  dtACCESS:     145493  dtHIT:      17250  dtMISS:     128243
cpu0_L2C PREFETCH  REQUESTED:    1381788  ISSUED:    1381788  CROSSED:          0  USEFUL:     334058  USELESS:     236226
cpu0_L2C AVERAGE iMISS LATENCY: 24.0415 cycles
cpu0_L2C AVERAGE dMISS LATENCY: 45.8896 cycles
cpu0_L2C AVERAGE itMISS LATENCY: 2.10327 cycles
cpu0_L2C AVERAGE dtMISS LATENCY: 5.81763 cycles
cpu0_L2C PAGE CROSSINGS (TLB HIT):         0 
cpu0_L2C PAGE CROSSINGS (TLB MISS):         0 
cpu0_L2C AVERAGE MISS LATENCY: 77.8519 cycles
LLC TOTAL       ACCESS:    2984997  HIT:    1859479  MISS:    1125518  iACCESS:    1043818  iHIT:     693661  iMISS:     350157  dACCESS:    1767546  dHIT:    1105720  dMISS:     661826  itACCESS:      45390  itHIT:      14352  itMISS:      31038  dtACCESS:     128243  dtHIT:      45746  dtMISS:      82497
LLC LOAD         ACCESS:     680253  HIT:     441224  MISS:     239029  iACCESS:     232282  iHIT:     157998  iMISS:      74284  dACCESS:     447971  dHIT:     283226  dMISS:     164745  itACCESS:          0  itHIT:          0  itMISS:          0  dtACCESS:          0  dtHIT:          0  dtMISS:          0
LLC RFO          ACCESS:      86950  HIT:      44846  MISS:      42104  iACCESS:          0  iHIT:          0  iMISS:          0  dACCESS:      86950  dHIT:      44846  dMISS:      42104  itACCESS:          0  itHIT:          0  itMISS:          0  dtACCESS:          0  dtHIT:          0  dtMISS:          0
LLC PREFETCH     ACCESS:    1909892  HIT:    1186293  MISS:     723599  iACCESS:     811536  iHIT:     535663  iMISS:     275873  dACCESS:    1098356  dHIT:     650630  dMISS:     447726  itACCESS:          0  itHIT:          0  itMISS:          0  dtACCESS:          0  dtHIT:          0  dtMISS:          0
LLC WRITE        ACCESS:     134269  HIT:     127018  MISS:       7251  iACCESS:          0  iHIT:          0  iMISS:          0  dACCESS:     134269  dHIT:     127018  dMISS:       7251  itACCESS:          0  itHIT:          0  itMISS:          0  dtACCESS:          0  dtHIT:          0  dtMISS:          0
LLC TRANSLATION  ACCESS:     173633  HIT:      60098  MISS:     113535  iACCESS:          0  iHIT:          0  iMISS:          0  dACCESS:          0  dHIT:          0  dMISS:          0  itACCESS:      45390  itHIT:      14352  itMISS:      31038  dtACCESS:     128243  dtHIT:      45746  dtMISS:      82497
LLC PREFETCH  REQUESTED:          0  ISSUED:          0  CROSSED:          0  USEFUL:          0  USELESS:          0
LLC AVERAGE iMISS LATENCY: 45.2739 cycles
LLC AVERAGE dMISS LATENCY: 92.7252 cycles
LLC AVERAGE itMISS LATENCY: 4.74654 cycles
LLC AVERAGE dtMISS LATENCY: 13.0867 cycles
LLC PAGE CROSSINGS (TLB HIT):         0 
LLC PAGE CROSSINGS (TLB MISS):         0 
LLC AVERAGE MISS LATENCY: 155.833 cycles

PageTableWalker TOTAL       ACCESS:      84493  
PageTableWalker AVERAGE LATENCY: 5.2796 cycles
PageTableWalker TOTAL LATENCY: 446089 cycles

DRAM Statistics
Channel 0
 RQ ROW_BUFFER_HIT:     312302
  ROW_BUFFER_MISS:     805903
 AVG DBUS CONGESTED CYCLE:    3.61594
 WQ ROW_BUFFER_HIT:      22147
  ROW_BUFFER_MISS:      20732  FULL:          0

