last_page:0x200000000000000
VMEM_RES_CAP:0x100000
PAGE_SIZE:4096
LOG2_PAGE_SIZE:12
LOG2_PAGE_TABLE_SIZE:9
page_table_levels:5
WARNING: physical memory size is smaller than virtual memory size
FDiP enabled with aggresivity 16

*** ChampSim Multicore Out-of-Order Simulator ***

Warmup Instructions: 50000000
Simulation Instructions: 100000000
Number of CPUs: 1
Small page size: 4096
Large page size: 2097152

CPU 0 Bimodal branch predictor
Basic BTB sets: 1024 ways: 8 indirect buffer size: 4096 RAS size: 64
Instruction page size distrubution: 0
Loading instruction page size distribution from /home/bsc/bsc018186/scratch/itp_asplos25_AE/dump/srv408_ap.pdst
Data page size distrubution: 0
Loading data page size distribution from /home/bsc/bsc018186/scratch/itp_asplos25_AE/dump/srv408_ap.pdst
cpu0_L2C IP-based stride prefetcher
cpu0_L2C is using PTP replacement policy:
	TLB_STRESS_THRESHOLD:0
	PTE_EVICTION_RATIO:0
cpu0_L1D next line prefetcher
CHiRPing...
cpu0_L1I next line prefetcher
Off-chip DRAM Size: 4 GiB Channels: 1 Width: 64-bit Data Rate: 3200 MT/s
Heartbeat CPU 0 instructions: 10000002 cycles: 2511071 heartbeat IPC: 3.98237 cumulative IPC: 3.98237 (Simulation time: 0 hr 0 min 37 sec) 
Heartbeat CPU 0 instructions: 20000000 cycles: 5557279 heartbeat IPC: 3.28277 cumulative IPC: 3.59889 (Simulation time: 0 hr 1 min 18 sec) 
Heartbeat CPU 0 instructions: 30000003 cycles: 8089763 heartbeat IPC: 3.9487 cumulative IPC: 3.7084 (Simulation time: 0 hr 1 min 58 sec) 
Heartbeat CPU 0 instructions: 40000001 cycles: 10589793 heartbeat IPC: 3.99996 cumulative IPC: 3.77723 (Simulation time: 0 hr 2 min 39 sec) 
Heartbeat CPU 0 instructions: 50000003 cycles: 13089934 heartbeat IPC: 3.99978 cumulative IPC: 3.81973 (Simulation time: 0 hr 3 min 20 sec) 
Warmup finished CPU 0 instructions: 50000003 cycles: 13089935 cumulative IPC: 3.81973 (Simulation time: 0 hr 3 min 20 sec) 

Warmup complete CPU 0 instructions: 50000003 cycles: 13089935 (Simulation time: 0 hr 3 min 20 sec) 

Heartbeat CPU 0 instructions: 60000002 cycles: 32720495 heartbeat IPC: 0.50941 cumulative IPC: 0.50941 (Simulation time: 0 hr 4 min 31 sec) 
Heartbeat CPU 0 instructions: 70000002 cycles: 52807565 heartbeat IPC: 0.497833 cumulative IPC: 0.503555 (Simulation time: 0 hr 5 min 43 sec) 
Heartbeat CPU 0 instructions: 80000004 cycles: 72160283 heartbeat IPC: 0.516724 cumulative IPC: 0.50787 (Simulation time: 0 hr 6 min 56 sec) 
Heartbeat CPU 0 instructions: 90000000 cycles: 92243179 heartbeat IPC: 0.497936 cumulative IPC: 0.505349 (Simulation time: 0 hr 8 min 10 sec) 
Heartbeat CPU 0 instructions: 100000000 cycles: 108670053 heartbeat IPC: 0.608759 cumulative IPC: 0.523122 (Simulation time: 0 hr 9 min 21 sec) 
*** Reached end of trace: /gpfs/projects/bsc18/MN4/bsc18/romol/ChampSim/traces/qualcomm_srv/srv408_ap.champsimtrace.xz
Heartbeat CPU 0 instructions: 110000000 cycles: 124363153 heartbeat IPC: 0.637223 cumulative IPC: 0.539214 (Simulation time: 0 hr 10 min 30 sec) 
Heartbeat CPU 0 instructions: 120000001 cycles: 134835890 heartbeat IPC: 0.954861 cumulative IPC: 0.574968 (Simulation time: 0 hr 11 min 35 sec) 
Heartbeat CPU 0 instructions: 130000000 cycles: 150136245 heartbeat IPC: 0.65358 cumulative IPC: 0.583745 (Simulation time: 0 hr 12 min 43 sec) 
Heartbeat CPU 0 instructions: 140000000 cycles: 169408592 heartbeat IPC: 0.518879 cumulative IPC: 0.575747 (Simulation time: 0 hr 13 min 56 sec) 
Heartbeat CPU 0 instructions: 150000000 cycles: 189645684 heartbeat IPC: 0.494143 cumulative IPC: 0.566394 (Simulation time: 0 hr 15 min 11 sec) 
Simulation finished CPU 0 instructions: 100000001 cycles: 176555751 cumulative IPC: 0.566394 (Simulation time: 0 hr 15 min 11 sec) 

Simulation complete CPU 0 instructions: 100000001 cycles: 176555751 (Simulation time: 0 hr 15 min 11 sec) 


ChampSim completed all CPUs

Saving instructions large page distribution to /home/bsc/bsc018186/scratch/itp_asplos25_AE/dump/srv408_ap.pdst...
Saving data large page distribution to /home/bsc/bsc018186/scratch/itp_asplos25_AE/dump/srv408_ap.pdst...
=== Simulation ===
CPU 0 runs /gpfs/projects/bsc18/MN4/bsc18/romol/ChampSim/traces/qualcomm_srv/srv408_ap.champsimtrace.xz

Region of Interest Statistics

CPU 0 cumulative IPC: 0.566394 instructions: 100000001 cycles: 176555751
CPU 0 Branch Prediction Accuracy: 83.374% MPKI: 33.2918 Average ROB Occupancy at Mispredict: 12.1282
Branch type MPKI
BRANCH_DIRECT_JUMP: 1.27822
BRANCH_INDIRECT: 16.7581
BRANCH_CONDITIONAL: 10.3962
BRANCH_DIRECT_CALL: 2.47861
BRANCH_INDIRECT_CALL: 0.71517
BRANCH_RETURN: 1.66558

Instructions large pages: 0
Instructions small pages: 1151
Large page distribution for instructions: 0%

Data large pages: 0
Data small pages: 4656
Large page distribution for data: 0%

cpu0_L1I TOTAL       ACCESS:   35270730  HIT:   28053598  MISS:    7217132  iACCESS:   35270730  iHIT:   28053598  iMISS:    7217132  dACCESS:          0  dHIT:          0  dMISS:          0  itACCESS:          0  itHIT:          0  itMISS:          0  dtACCESS:          0  dtHIT:          0  dtMISS:          0
cpu0_L1I LOAD         ACCESS:    9063284  HIT:    7091998  MISS:    1971286  iACCESS:    9063284  iHIT:    7091998  iMISS:    1971286  dACCESS:          0  dHIT:          0  dMISS:          0  itACCESS:          0  itHIT:          0  itMISS:          0  dtACCESS:          0  dtHIT:          0  dtMISS:          0
cpu0_L1I RFO          ACCESS:          0  HIT:          0  MISS:          0  iACCESS:          0  iHIT:          0  iMISS:          0  dACCESS:          0  dHIT:          0  dMISS:          0  itACCESS:          0  itHIT:          0  itMISS:          0  dtACCESS:          0  dtHIT:          0  dtMISS:          0
cpu0_L1I PREFETCH     ACCESS:   26207446  HIT:   20961600  MISS:    5245846  iACCESS:   26207446  iHIT:   20961600  iMISS:    5245846  dACCESS:          0  dHIT:          0  dMISS:          0  itACCESS:          0  itHIT:          0  itMISS:          0  dtACCESS:          0  dtHIT:          0  dtMISS:          0
cpu0_L1I WRITE        ACCESS:          0  HIT:          0  MISS:          0  iACCESS:          0  iHIT:          0  iMISS:          0  dACCESS:          0  dHIT:          0  dMISS:          0  itACCESS:          0  itHIT:          0  itMISS:          0  dtACCESS:          0  dtHIT:          0  dtMISS:          0
cpu0_L1I TRANSLATION  ACCESS:          0  HIT:          0  MISS:          0  iACCESS:          0  iHIT:          0  iMISS:          0  dACCESS:          0  dHIT:          0  dMISS:          0  itACCESS:          0  itHIT:          0  itMISS:          0  dtACCESS:          0  dtHIT:          0  dtMISS:          0
cpu0_L1I PREFETCH  REQUESTED:   28120601  ISSUED:   28117911  CROSSED:          0  USEFUL:    1730466  USELESS:     568035
cpu0_L1I AVERAGE iMISS LATENCY: 20.7195 cycles
cpu0_L1I AVERAGE dMISS LATENCY: 0 cycles
cpu0_L1I AVERAGE itMISS LATENCY: 0 cycles
cpu0_L1I AVERAGE dtMISS LATENCY: 0 cycles
cpu0_L1I PAGE CROSSINGS (TLB HIT):         0 
cpu0_L1I PAGE CROSSINGS (TLB MISS):         0 
cpu0_L1I AVERAGE MISS LATENCY: 20.7195 cycles
cpu0_ITLB TOTAL       ACCESS:   29601169  HIT:   27959002  MISS:    1642167  iACCESS:   29601169  iHIT:   27959002  iMISS:    1642167  dACCESS:          0  dHIT:          0  dMISS:          0  itACCESS:          0  itHIT:          0  itMISS:          0  dtACCESS:          0  dtHIT:          0  dtMISS:          0
cpu0_ITLB LOAD         ACCESS:   29601169  HIT:   27959002  MISS:    1642167  iACCESS:   29601169  iHIT:   27959002  iMISS:    1642167  dACCESS:          0  dHIT:          0  dMISS:          0  itACCESS:          0  itHIT:          0  itMISS:          0  dtACCESS:          0  dtHIT:          0  dtMISS:          0
cpu0_ITLB RFO          ACCESS:          0  HIT:          0  MISS:          0  iACCESS:          0  iHIT:          0  iMISS:          0  dACCESS:          0  dHIT:          0  dMISS:          0  itACCESS:          0  itHIT:          0  itMISS:          0  dtACCESS:          0  dtHIT:          0  dtMISS:          0
cpu0_ITLB PREFETCH     ACCESS:          0  HIT:          0  MISS:          0  iACCESS:          0  iHIT:          0  iMISS:          0  dACCESS:          0  dHIT:          0  dMISS:          0  itACCESS:          0  itHIT:          0  itMISS:          0  dtACCESS:          0  dtHIT:          0  dtMISS:          0
cpu0_ITLB WRITE        ACCESS:          0  HIT:          0  MISS:          0  iACCESS:          0  iHIT:          0  iMISS:          0  dACCESS:          0  dHIT:          0  dMISS:          0  itACCESS:          0  itHIT:          0  itMISS:          0  dtACCESS:          0  dtHIT:          0  dtMISS:          0
cpu0_ITLB TRANSLATION  ACCESS:          0  HIT:          0  MISS:          0  iACCESS:          0  iHIT:          0  iMISS:          0  dACCESS:          0  dHIT:          0  dMISS:          0  itACCESS:          0  itHIT:          0  itMISS:          0  dtACCESS:          0  dtHIT:          0  dtMISS:          0
cpu0_ITLB PREFETCH  REQUESTED:          0  ISSUED:          0  CROSSED:          0  USEFUL:     286207  USELESS:      55134
cpu0_ITLB AVERAGE iMISS LATENCY: 4.20285 cycles
cpu0_ITLB AVERAGE dMISS LATENCY: 0 cycles
cpu0_ITLB AVERAGE itMISS LATENCY: 0 cycles
cpu0_ITLB AVERAGE dtMISS LATENCY: 0 cycles
cpu0_ITLB PAGE CROSSINGS (TLB HIT):         0 
cpu0_ITLB PAGE CROSSINGS (TLB MISS):         0 
cpu0_ITLB AVERAGE MISS LATENCY: 4.20285 cycles
cpu0_DTLB TOTAL       ACCESS:   30706840  HIT:   25526352  MISS:    5180488  iACCESS:          0  iHIT:          0  iMISS:          0  dACCESS:   30706840  dHIT:   25526352  dMISS:    5180488  itACCESS:          0  itHIT:          0  itMISS:          0  dtACCESS:          0  dtHIT:          0  dtMISS:          0
cpu0_DTLB LOAD         ACCESS:   30706840  HIT:   25526352  MISS:    5180488  iACCESS:          0  iHIT:          0  iMISS:          0  dACCESS:   30706840  dHIT:   25526352  dMISS:    5180488  itACCESS:          0  itHIT:          0  itMISS:          0  dtACCESS:          0  dtHIT:          0  dtMISS:          0
cpu0_DTLB RFO          ACCESS:          0  HIT:          0  MISS:          0  iACCESS:          0  iHIT:          0  iMISS:          0  dACCESS:          0  dHIT:          0  dMISS:          0  itACCESS:          0  itHIT:          0  itMISS:          0  dtACCESS:          0  dtHIT:          0  dtMISS:          0
cpu0_DTLB PREFETCH     ACCESS:          0  HIT:          0  MISS:          0  iACCESS:          0  iHIT:          0  iMISS:          0  dACCESS:          0  dHIT:          0  dMISS:          0  itACCESS:          0  itHIT:          0  itMISS:          0  dtACCESS:          0  dtHIT:          0  dtMISS:          0
cpu0_DTLB WRITE        ACCESS:          0  HIT:          0  MISS:          0  iACCESS:          0  iHIT:          0  iMISS:          0  dACCESS:          0  dHIT:          0  dMISS:          0  itACCESS:          0  itHIT:          0  itMISS:          0  dtACCESS:          0  dtHIT:          0  dtMISS:          0
cpu0_DTLB TRANSLATION  ACCESS:          0  HIT:          0  MISS:          0  iACCESS:          0  iHIT:          0  iMISS:          0  dACCESS:          0  dHIT:          0  dMISS:          0  itACCESS:          0  itHIT:          0  itMISS:          0  dtACCESS:          0  dtHIT:          0  dtMISS:          0
cpu0_DTLB PREFETCH  REQUESTED:          0  ISSUED:          0  CROSSED:          0  USEFUL:          0  USELESS:          0
cpu0_DTLB AVERAGE iMISS LATENCY: 0 cycles
cpu0_DTLB AVERAGE dMISS LATENCY: 5.9513 cycles
cpu0_DTLB AVERAGE itMISS LATENCY: 0 cycles
cpu0_DTLB AVERAGE dtMISS LATENCY: 0 cycles
cpu0_DTLB PAGE CROSSINGS (TLB HIT):         0 
cpu0_DTLB PAGE CROSSINGS (TLB MISS):         0 
cpu0_DTLB AVERAGE MISS LATENCY: 5.9513 cycles
cpu0_STLB TOTAL       ACCESS:    3082640  HIT:    2869344  MISS:     213296  iACCESS:     341355  iHIT:     258140  iMISS:      83215  dACCESS:    2741285  dHIT:    2611204  dMISS:     130081  itACCESS:          0  itHIT:          0  itMISS:          0  dtACCESS:          0  dtHIT:          0  dtMISS:          0
cpu0_STLB LOAD         ACCESS:    3082640  HIT:    2869344  MISS:     213296  iACCESS:     341355  iHIT:     258140  iMISS:      83215  dACCESS:    2741285  dHIT:    2611204  dMISS:     130081  itACCESS:          0  itHIT:          0  itMISS:          0  dtACCESS:          0  dtHIT:          0  dtMISS:          0
cpu0_STLB RFO          ACCESS:          0  HIT:          0  MISS:          0  iACCESS:          0  iHIT:          0  iMISS:          0  dACCESS:          0  dHIT:          0  dMISS:          0  itACCESS:          0  itHIT:          0  itMISS:          0  dtACCESS:          0  dtHIT:          0  dtMISS:          0
cpu0_STLB PREFETCH     ACCESS:          0  HIT:          0  MISS:          0  iACCESS:          0  iHIT:          0  iMISS:          0  dACCESS:          0  dHIT:          0  dMISS:          0  itACCESS:          0  itHIT:          0  itMISS:          0  dtACCESS:          0  dtHIT:          0  dtMISS:          0
cpu0_STLB WRITE        ACCESS:          0  HIT:          0  MISS:          0  iACCESS:          0  iHIT:          0  iMISS:          0  dACCESS:          0  dHIT:          0  dMISS:          0  itACCESS:          0  itHIT:          0  itMISS:          0  dtACCESS:          0  dtHIT:          0  dtMISS:          0
cpu0_STLB TRANSLATION  ACCESS:          0  HIT:          0  MISS:          0  iACCESS:          0  iHIT:          0  iMISS:          0  dACCESS:          0  dHIT:          0  dMISS:          0  itACCESS:          0  itHIT:          0  itMISS:          0  dtACCESS:          0  dtHIT:          0  dtMISS:          0
cpu0_STLB PREFETCH  REQUESTED:          0  ISSUED:          0  CROSSED:          0  USEFUL:          0  USELESS:          0
cpu0_STLB AVERAGE iMISS LATENCY: 19.5737 cycles
cpu0_STLB AVERAGE dMISS LATENCY: 40.4808 cycles
cpu0_STLB AVERAGE itMISS LATENCY: 0 cycles
cpu0_STLB AVERAGE dtMISS LATENCY: 0 cycles
cpu0_STLB PAGE CROSSINGS (TLB HIT):         0 
cpu0_STLB PAGE CROSSINGS (TLB MISS):         0 
cpu0_STLB AVERAGE MISS LATENCY: 60.0545 cycles
cpu0_L1D TOTAL       ACCESS:   48579175  HIT:   39452770  MISS:    9126405  iACCESS:          0  iHIT:          0  iMISS:          0  dACCESS:   48305701  dHIT:   39430477  dMISS:    8875224  itACCESS:      89575  itHIT:      11917  itMISS:      77658  dtACCESS:     183899  dtHIT:      10376  dtMISS:     173523
cpu0_L1D LOAD         ACCESS:   23935715  HIT:   18666676  MISS:    5269039  iACCESS:          0  iHIT:          0  iMISS:          0  dACCESS:   23935715  dHIT:   18666676  dMISS:    5269039  itACCESS:          0  itHIT:          0  itMISS:          0  dtACCESS:          0  dtHIT:          0  dtMISS:          0
cpu0_L1D RFO          ACCESS:          0  HIT:          0  MISS:          0  iACCESS:          0  iHIT:          0  iMISS:          0  dACCESS:          0  dHIT:          0  dMISS:          0  itACCESS:          0  itHIT:          0  itMISS:          0  dtACCESS:          0  dtHIT:          0  dtMISS:          0
cpu0_L1D PREFETCH     ACCESS:   14772636  HIT:   11629576  MISS:    3143060  iACCESS:          0  iHIT:          0  iMISS:          0  dACCESS:   14772636  dHIT:   11629576  dMISS:    3143060  itACCESS:          0  itHIT:          0  itMISS:          0  dtACCESS:          0  dtHIT:          0  dtMISS:          0
cpu0_L1D WRITE        ACCESS:    9597350  HIT:    9134225  MISS:     463125  iACCESS:          0  iHIT:          0  iMISS:          0  dACCESS:    9597350  dHIT:    9134225  dMISS:     463125  itACCESS:          0  itHIT:          0  itMISS:          0  dtACCESS:          0  dtHIT:          0  dtMISS:          0
cpu0_L1D TRANSLATION  ACCESS:     273474  HIT:      22293  MISS:     251181  iACCESS:          0  iHIT:          0  iMISS:          0  dACCESS:          0  dHIT:          0  dMISS:          0  itACCESS:      89575  itHIT:      11917  itMISS:      77658  dtACCESS:     183899  dtHIT:      10376  dtMISS:     173523
cpu0_L1D PREFETCH  REQUESTED:   23935715  ISSUED:   17741769  CROSSED:          0  USEFUL:     259626  USELESS:     782912
cpu0_L1D AVERAGE iMISS LATENCY: 0 cycles
cpu0_L1D AVERAGE dMISS LATENCY: 23.5273 cycles
cpu0_L1D AVERAGE itMISS LATENCY: 0.379145 cycles
cpu0_L1D AVERAGE dtMISS LATENCY: 0.75568 cycles
cpu0_L1D PAGE CROSSINGS (TLB HIT):         0 
cpu0_L1D PAGE CROSSINGS (TLB MISS):         0 
cpu0_L1D AVERAGE MISS LATENCY: 24.6621 cycles
cpu0_L2C TOTAL       ACCESS:    8815590  HIT:    1897180  MISS:    6918410  iACCESS:    2917679  iHIT:     565656  iMISS:    2352023  dACCESS:    5655881  dHIT:    1142457  dMISS:    4513424  itACCESS:      77658  itHIT:      56870  itMISS:      20788  dtACCESS:     164372  dtHIT:     132197  dtMISS:      32175
cpu0_L2C LOAD         ACCESS:    3726725  HIT:     816327  MISS:    2910398  iACCESS:     650008  iHIT:      69735  iMISS:     580273  dACCESS:    3076717  dHIT:     746592  dMISS:    2330125  itACCESS:          0  itHIT:          0  itMISS:          0  dtACCESS:          0  dtHIT:          0  dtMISS:          0
cpu0_L2C RFO          ACCESS:     178745  HIT:      21731  MISS:     157014  iACCESS:          0  iHIT:          0  iMISS:          0  dACCESS:     178745  dHIT:      21731  dMISS:     157014  itACCESS:          0  itHIT:          0  itMISS:          0  dtACCESS:          0  dtHIT:          0  dtMISS:          0
cpu0_L2C PREFETCH     ACCESS:    4434251  HIT:     821337  MISS:    3612914  iACCESS:    2267671  iHIT:     495921  iMISS:    1771750  dACCESS:    2166580  dHIT:     325416  dMISS:    1841164  itACCESS:          0  itHIT:          0  itMISS:          0  dtACCESS:          0  dtHIT:          0  dtMISS:          0
cpu0_L2C WRITE        ACCESS:     233839  HIT:      48718  MISS:     185121  iACCESS:          0  iHIT:          0  iMISS:          0  dACCESS:     233839  dHIT:      48718  dMISS:     185121  itACCESS:          0  itHIT:          0  itMISS:          0  dtACCESS:          0  dtHIT:          0  dtMISS:          0
cpu0_L2C TRANSLATION  ACCESS:     242030  HIT:     189067  MISS:      52963  iACCESS:          0  iHIT:          0  iMISS:          0  dACCESS:          0  dHIT:          0  dMISS:          0  itACCESS:      77658  itHIT:      56870  itMISS:      20788  dtACCESS:     164372  dtHIT:     132197  dtMISS:      32175
cpu0_L2C PREFETCH  REQUESTED:    1349831  ISSUED:    1349820  CROSSED:          0  USEFUL:     373951  USELESS:     399478
cpu0_L2C AVERAGE iMISS LATENCY: 17.8169 cycles
cpu0_L2C AVERAGE dMISS LATENCY: 33.7254 cycles
cpu0_L2C AVERAGE itMISS LATENCY: 0.395841 cycles
cpu0_L2C AVERAGE dtMISS LATENCY: 0.777737 cycles
cpu0_L2C PAGE CROSSINGS (TLB HIT):         0 
cpu0_L2C PAGE CROSSINGS (TLB MISS):         0 
cpu0_L2C AVERAGE MISS LATENCY: 52.7158 cycles
LLC TOTAL       ACCESS:    6759353  HIT:    5270298  MISS:    1489055  iACCESS:    2280282  iHIT:    1743896  iMISS:     536386  dACCESS:    4426108  dHIT:    3512183  dMISS:     913925  itACCESS:      20788  itHIT:       7564  itMISS:      13224  dtACCESS:      32175  dtHIT:       6655  dtMISS:      25520
LLC LOAD         ACCESS:    2904993  HIT:    2563985  MISS:     341008  iACCESS:     579163  iHIT:     469131  iMISS:     110032  dACCESS:    2325830  dHIT:    2094854  dMISS:     230976  itACCESS:          0  itHIT:          0  itMISS:          0  dtACCESS:          0  dtHIT:          0  dtMISS:          0
LLC RFO          ACCESS:     157009  HIT:      97072  MISS:      59937  iACCESS:          0  iHIT:          0  iMISS:          0  dACCESS:     157009  dHIT:      97072  dMISS:      59937  itACCESS:          0  itHIT:          0  itMISS:          0  dtACCESS:          0  dtHIT:          0  dtMISS:          0
LLC PREFETCH     ACCESS:    3433349  HIT:    2383989  MISS:    1049360  iACCESS:    1701119  iHIT:    1274765  iMISS:     426354  dACCESS:    1732230  dHIT:    1109224  dMISS:     623006  itACCESS:          0  itHIT:          0  itMISS:          0  dtACCESS:          0  dtHIT:          0  dtMISS:          0
LLC WRITE        ACCESS:     211039  HIT:     211033  MISS:          6  iACCESS:          0  iHIT:          0  iMISS:          0  dACCESS:     211039  dHIT:     211033  dMISS:          6  itACCESS:          0  itHIT:          0  itMISS:          0  dtACCESS:          0  dtHIT:          0  dtMISS:          0
LLC TRANSLATION  ACCESS:      52963  HIT:      14219  MISS:      38744  iACCESS:          0  iHIT:          0  iMISS:          0  dACCESS:          0  dHIT:          0  dMISS:          0  itACCESS:      20788  itHIT:       7564  itMISS:      13224  dtACCESS:      32175  dtHIT:       6655  dtMISS:      25520
LLC PREFETCH  REQUESTED:          0  ISSUED:          0  CROSSED:          0  USEFUL:          0  USELESS:          0
LLC AVERAGE iMISS LATENCY: 53.12 cycles
LLC AVERAGE dMISS LATENCY: 102.772 cycles
LLC AVERAGE itMISS LATENCY: 1.56568 cycles
LLC AVERAGE dtMISS LATENCY: 3.18759 cycles
LLC PAGE CROSSINGS (TLB HIT):         0 
LLC PAGE CROSSINGS (TLB MISS):         0 
LLC AVERAGE MISS LATENCY: 160.645 cycles

PageTableWalker TOTAL       ACCESS:     100991  
PageTableWalker AVERAGE LATENCY: 3.93031 cycles
PageTableWalker TOTAL LATENCY: 396925 cycles

DRAM Statistics
Channel 0
 RQ ROW_BUFFER_HIT:     440109
  ROW_BUFFER_MISS:    1033036
 AVG DBUS CONGESTED CYCLE:    3.64621
 WQ ROW_BUFFER_HIT:      34941
  ROW_BUFFER_MISS:      34323  FULL:          0

