last_page:0x200000000000000
VMEM_RES_CAP:0x100000
PAGE_SIZE:4096
LOG2_PAGE_SIZE:12
LOG2_PAGE_TABLE_SIZE:9
page_table_levels:5
WARNING: physical memory size is smaller than virtual memory size
FDiP enabled with aggresivity 16

*** ChampSim Multicore Out-of-Order Simulator ***

Warmup Instructions: 50000000
Simulation Instructions: 100000000
Number of CPUs: 1
Small page size: 4096
Large page size: 2097152

CPU 0 Bimodal branch predictor
Basic BTB sets: 1024 ways: 8 indirect buffer size: 4096 RAS size: 64
Instruction page size distrubution: 0
Loading instruction page size distribution from /home/bsc/bsc018186/scratch/itp_asplos25_AE/dump/srv41_ap.pdst
Data page size distrubution: 0
Loading data page size distribution from /home/bsc/bsc018186/scratch/itp_asplos25_AE/dump/srv41_ap.pdst
cpu0_L2C IP-based stride prefetcher
cpu0_L1D next line prefetcher
cpu0_STLB using iTP with max lru@8
cpu0_STLB using iTP with instr@0 and data@2
Init sat counter with 3 bits (max:50).
cpu0_L1I next line prefetcher
Off-chip DRAM Size: 4 GiB Channels: 1 Width: 64-bit Data Rate: 3200 MT/s
Heartbeat CPU 0 instructions: 10000000 cycles: 2500161 heartbeat IPC: 3.99975 cumulative IPC: 3.99975 (Simulation time: 0 hr 0 min 37 sec) 
Heartbeat CPU 0 instructions: 20000003 cycles: 5000219 heartbeat IPC: 3.99991 cumulative IPC: 3.99983 (Simulation time: 0 hr 1 min 16 sec) 
Heartbeat CPU 0 instructions: 30000002 cycles: 7500233 heartbeat IPC: 3.99998 cumulative IPC: 3.99988 (Simulation time: 0 hr 1 min 57 sec) 
Heartbeat CPU 0 instructions: 40000002 cycles: 10000242 heartbeat IPC: 3.99999 cumulative IPC: 3.99991 (Simulation time: 0 hr 2 min 37 sec) 
Heartbeat CPU 0 instructions: 50000002 cycles: 12500247 heartbeat IPC: 4 cumulative IPC: 3.99993 (Simulation time: 0 hr 3 min 17 sec) 
Warmup finished CPU 0 instructions: 50000002 cycles: 12500248 cumulative IPC: 3.99993 (Simulation time: 0 hr 3 min 17 sec) 

Warmup complete CPU 0 instructions: 50000002 cycles: 12500248 (Simulation time: 0 hr 3 min 17 sec) 

Heartbeat CPU 0 instructions: 60000004 cycles: 30875410 heartbeat IPC: 0.544213 cumulative IPC: 0.544213 (Simulation time: 0 hr 4 min 27 sec) 
Heartbeat CPU 0 instructions: 70000003 cycles: 48649074 heartbeat IPC: 0.562631 cumulative IPC: 0.553269 (Simulation time: 0 hr 5 min 35 sec) 
Heartbeat CPU 0 instructions: 80000001 cycles: 66991217 heartbeat IPC: 0.545193 cumulative IPC: 0.55055 (Simulation time: 0 hr 6 min 46 sec) 
Heartbeat CPU 0 instructions: 90000003 cycles: 86439086 heartbeat IPC: 0.514196 cumulative IPC: 0.540988 (Simulation time: 0 hr 7 min 59 sec) 
Heartbeat CPU 0 instructions: 100000004 cycles: 104358434 heartbeat IPC: 0.558057 cumulative IPC: 0.544318 (Simulation time: 0 hr 9 min 10 sec) 
*** Reached end of trace: /gpfs/projects/bsc18/MN4/bsc18/romol/ChampSim/traces/qualcomm_srv/srv41_ap.champsimtrace.xz
Heartbeat CPU 0 instructions: 110000003 cycles: 122819368 heartbeat IPC: 0.541685 cumulative IPC: 0.543877 (Simulation time: 0 hr 10 min 21 sec) 
Heartbeat CPU 0 instructions: 120000001 cycles: 141428651 heartbeat IPC: 0.537367 cumulative IPC: 0.542937 (Simulation time: 0 hr 11 min 33 sec) 
Heartbeat CPU 0 instructions: 130000002 cycles: 159336600 heartbeat IPC: 0.558412 cumulative IPC: 0.544825 (Simulation time: 0 hr 12 min 42 sec) 
Heartbeat CPU 0 instructions: 140000004 cycles: 177778314 heartbeat IPC: 0.54225 cumulative IPC: 0.544537 (Simulation time: 0 hr 13 min 52 sec) 
Heartbeat CPU 0 instructions: 150000002 cycles: 196035584 heartbeat IPC: 0.547727 cumulative IPC: 0.544855 (Simulation time: 0 hr 15 min 2 sec) 
Simulation finished CPU 0 instructions: 100000000 cycles: 183535337 cumulative IPC: 0.544855 (Simulation time: 0 hr 15 min 2 sec) 

Simulation complete CPU 0 instructions: 100000000 cycles: 183535337 (Simulation time: 0 hr 15 min 2 sec) 


ChampSim completed all CPUs

Saving instructions large page distribution to /home/bsc/bsc018186/scratch/itp_asplos25_AE/dump/srv41_ap.pdst...
Saving data large page distribution to /home/bsc/bsc018186/scratch/itp_asplos25_AE/dump/srv41_ap.pdst...
=== Simulation ===
CPU 0 runs /gpfs/projects/bsc18/MN4/bsc18/romol/ChampSim/traces/qualcomm_srv/srv41_ap.champsimtrace.xz

Region of Interest Statistics

CPU 0 cumulative IPC: 0.544855 instructions: 100000000 cycles: 183535337
CPU 0 Branch Prediction Accuracy: 80.3925% MPKI: 35.4392 Average ROB Occupancy at Mispredict: 10.4609
Branch type MPKI
BRANCH_DIRECT_JUMP: 1.31903
BRANCH_INDIRECT: 17.7314
BRANCH_CONDITIONAL: 11.5202
BRANCH_DIRECT_CALL: 2.49592
BRANCH_INDIRECT_CALL: 0.670401
BRANCH_RETURN: 1.70237

Instructions large pages: 0
Instructions small pages: 5905
Large page distribution for instructions: 0%

Data large pages: 0
Data small pages: 4859
Large page distribution for data: 0%

cpu0_L1I TOTAL       ACCESS:   36228432  HIT:   27856242  MISS:    8372190  iACCESS:   36228432  iHIT:   27856242  iMISS:    8372190  dACCESS:          0  dHIT:          0  dMISS:          0  itACCESS:          0  itHIT:          0  itMISS:          0  dtACCESS:          0  dtHIT:          0  dtMISS:          0
cpu0_L1I LOAD         ACCESS:   10553786  HIT:    8257241  MISS:    2296545  iACCESS:   10553786  iHIT:    8257241  iMISS:    2296545  dACCESS:          0  dHIT:          0  dMISS:          0  itACCESS:          0  itHIT:          0  itMISS:          0  dtACCESS:          0  dtHIT:          0  dtMISS:          0
cpu0_L1I RFO          ACCESS:          0  HIT:          0  MISS:          0  iACCESS:          0  iHIT:          0  iMISS:          0  dACCESS:          0  dHIT:          0  dMISS:          0  itACCESS:          0  itHIT:          0  itMISS:          0  dtACCESS:          0  dtHIT:          0  dtMISS:          0
cpu0_L1I PREFETCH     ACCESS:   25674646  HIT:   19599001  MISS:    6075645  iACCESS:   25674646  iHIT:   19599001  iMISS:    6075645  dACCESS:          0  dHIT:          0  dMISS:          0  itACCESS:          0  itHIT:          0  itMISS:          0  dtACCESS:          0  dtHIT:          0  dtMISS:          0
cpu0_L1I WRITE        ACCESS:          0  HIT:          0  MISS:          0  iACCESS:          0  iHIT:          0  iMISS:          0  dACCESS:          0  dHIT:          0  dMISS:          0  itACCESS:          0  itHIT:          0  itMISS:          0  dtACCESS:          0  dtHIT:          0  dtMISS:          0
cpu0_L1I TRANSLATION  ACCESS:          0  HIT:          0  MISS:          0  iACCESS:          0  iHIT:          0  iMISS:          0  dACCESS:          0  dHIT:          0  dMISS:          0  itACCESS:          0  itHIT:          0  itMISS:          0  dtACCESS:          0  dtHIT:          0  dtMISS:          0
cpu0_L1I PREFETCH  REQUESTED:   28019431  ISSUED:   28017727  CROSSED:          0  USEFUL:    1990620  USELESS:     652566
cpu0_L1I AVERAGE iMISS LATENCY: 18.858 cycles
cpu0_L1I AVERAGE dMISS LATENCY: 0 cycles
cpu0_L1I AVERAGE itMISS LATENCY: 0 cycles
cpu0_L1I AVERAGE dtMISS LATENCY: 0 cycles
cpu0_L1I PAGE CROSSINGS (TLB HIT):         0 
cpu0_L1I PAGE CROSSINGS (TLB MISS):         0 
cpu0_L1I AVERAGE MISS LATENCY: 18.858 cycles
cpu0_ITLB TOTAL       ACCESS:   30206847  HIT:   28268371  MISS:    1938476  iACCESS:   30206847  iHIT:   28268371  iMISS:    1938476  dACCESS:          0  dHIT:          0  dMISS:          0  itACCESS:          0  itHIT:          0  itMISS:          0  dtACCESS:          0  dtHIT:          0  dtMISS:          0
cpu0_ITLB LOAD         ACCESS:   30206847  HIT:   28268371  MISS:    1938476  iACCESS:   30206847  iHIT:   28268371  iMISS:    1938476  dACCESS:          0  dHIT:          0  dMISS:          0  itACCESS:          0  itHIT:          0  itMISS:          0  dtACCESS:          0  dtHIT:          0  dtMISS:          0
cpu0_ITLB RFO          ACCESS:          0  HIT:          0  MISS:          0  iACCESS:          0  iHIT:          0  iMISS:          0  dACCESS:          0  dHIT:          0  dMISS:          0  itACCESS:          0  itHIT:          0  itMISS:          0  dtACCESS:          0  dtHIT:          0  dtMISS:          0
cpu0_ITLB PREFETCH     ACCESS:          0  HIT:          0  MISS:          0  iACCESS:          0  iHIT:          0  iMISS:          0  dACCESS:          0  dHIT:          0  dMISS:          0  itACCESS:          0  itHIT:          0  itMISS:          0  dtACCESS:          0  dtHIT:          0  dtMISS:          0
cpu0_ITLB WRITE        ACCESS:          0  HIT:          0  MISS:          0  iACCESS:          0  iHIT:          0  iMISS:          0  dACCESS:          0  dHIT:          0  dMISS:          0  itACCESS:          0  itHIT:          0  itMISS:          0  dtACCESS:          0  dtHIT:          0  dtMISS:          0
cpu0_ITLB TRANSLATION  ACCESS:          0  HIT:          0  MISS:          0  iACCESS:          0  iHIT:          0  iMISS:          0  dACCESS:          0  dHIT:          0  dMISS:          0  itACCESS:          0  itHIT:          0  itMISS:          0  dtACCESS:          0  dtHIT:          0  dtMISS:          0
cpu0_ITLB PREFETCH  REQUESTED:          0  ISSUED:          0  CROSSED:          0  USEFUL:     327020  USELESS:      66090
cpu0_ITLB AVERAGE iMISS LATENCY: 2.98305 cycles
cpu0_ITLB AVERAGE dMISS LATENCY: 0 cycles
cpu0_ITLB AVERAGE itMISS LATENCY: 0 cycles
cpu0_ITLB AVERAGE dtMISS LATENCY: 0 cycles
cpu0_ITLB PAGE CROSSINGS (TLB HIT):         0 
cpu0_ITLB PAGE CROSSINGS (TLB MISS):         0 
cpu0_ITLB AVERAGE MISS LATENCY: 2.98305 cycles
cpu0_DTLB TOTAL       ACCESS:   27921118  HIT:   25947415  MISS:    1973703  iACCESS:          0  iHIT:          0  iMISS:          0  dACCESS:   27921118  dHIT:   25947415  dMISS:    1973703  itACCESS:          0  itHIT:          0  itMISS:          0  dtACCESS:          0  dtHIT:          0  dtMISS:          0
cpu0_DTLB LOAD         ACCESS:   27921118  HIT:   25947415  MISS:    1973703  iACCESS:          0  iHIT:          0  iMISS:          0  dACCESS:   27921118  dHIT:   25947415  dMISS:    1973703  itACCESS:          0  itHIT:          0  itMISS:          0  dtACCESS:          0  dtHIT:          0  dtMISS:          0
cpu0_DTLB RFO          ACCESS:          0  HIT:          0  MISS:          0  iACCESS:          0  iHIT:          0  iMISS:          0  dACCESS:          0  dHIT:          0  dMISS:          0  itACCESS:          0  itHIT:          0  itMISS:          0  dtACCESS:          0  dtHIT:          0  dtMISS:          0
cpu0_DTLB PREFETCH     ACCESS:          0  HIT:          0  MISS:          0  iACCESS:          0  iHIT:          0  iMISS:          0  dACCESS:          0  dHIT:          0  dMISS:          0  itACCESS:          0  itHIT:          0  itMISS:          0  dtACCESS:          0  dtHIT:          0  dtMISS:          0
cpu0_DTLB WRITE        ACCESS:          0  HIT:          0  MISS:          0  iACCESS:          0  iHIT:          0  iMISS:          0  dACCESS:          0  dHIT:          0  dMISS:          0  itACCESS:          0  itHIT:          0  itMISS:          0  dtACCESS:          0  dtHIT:          0  dtMISS:          0
cpu0_DTLB TRANSLATION  ACCESS:          0  HIT:          0  MISS:          0  iACCESS:          0  iHIT:          0  iMISS:          0  dACCESS:          0  dHIT:          0  dMISS:          0  itACCESS:          0  itHIT:          0  itMISS:          0  dtACCESS:          0  dtHIT:          0  dtMISS:          0
cpu0_DTLB PREFETCH  REQUESTED:          0  ISSUED:          0  CROSSED:          0  USEFUL:          0  USELESS:          0
cpu0_DTLB AVERAGE iMISS LATENCY: 0 cycles
cpu0_DTLB AVERAGE dMISS LATENCY: 13.6271 cycles
cpu0_DTLB AVERAGE itMISS LATENCY: 0 cycles
cpu0_DTLB AVERAGE dtMISS LATENCY: 0 cycles
cpu0_DTLB PAGE CROSSINGS (TLB HIT):         0 
cpu0_DTLB PAGE CROSSINGS (TLB MISS):         0 
cpu0_DTLB AVERAGE MISS LATENCY: 13.6271 cycles
cpu0_STLB TOTAL       ACCESS:    1626832  HIT:    1415303  MISS:     211529  iACCESS:     393118  iHIT:     364510  iMISS:      28608  dACCESS:    1233714  dHIT:    1050793  dMISS:     182921  itACCESS:          0  itHIT:          0  itMISS:          0  dtACCESS:          0  dtHIT:          0  dtMISS:          0
cpu0_STLB LOAD         ACCESS:    1626832  HIT:    1415303  MISS:     211529  iACCESS:     393118  iHIT:     364510  iMISS:      28608  dACCESS:    1233714  dHIT:    1050793  dMISS:     182921  itACCESS:          0  itHIT:          0  itMISS:          0  dtACCESS:          0  dtHIT:          0  dtMISS:          0
cpu0_STLB RFO          ACCESS:          0  HIT:          0  MISS:          0  iACCESS:          0  iHIT:          0  iMISS:          0  dACCESS:          0  dHIT:          0  dMISS:          0  itACCESS:          0  itHIT:          0  itMISS:          0  dtACCESS:          0  dtHIT:          0  dtMISS:          0
cpu0_STLB PREFETCH     ACCESS:          0  HIT:          0  MISS:          0  iACCESS:          0  iHIT:          0  iMISS:          0  dACCESS:          0  dHIT:          0  dMISS:          0  itACCESS:          0  itHIT:          0  itMISS:          0  dtACCESS:          0  dtHIT:          0  dtMISS:          0
cpu0_STLB WRITE        ACCESS:          0  HIT:          0  MISS:          0  iACCESS:          0  iHIT:          0  iMISS:          0  dACCESS:          0  dHIT:          0  dMISS:          0  itACCESS:          0  itHIT:          0  itMISS:          0  dtACCESS:          0  dtHIT:          0  dtMISS:          0
cpu0_STLB TRANSLATION  ACCESS:          0  HIT:          0  MISS:          0  iACCESS:          0  iHIT:          0  iMISS:          0  dACCESS:          0  dHIT:          0  dMISS:          0  itACCESS:          0  itHIT:          0  itMISS:          0  dtACCESS:          0  dtHIT:          0  dtMISS:          0
cpu0_STLB PREFETCH  REQUESTED:          0  ISSUED:          0  CROSSED:          0  USEFUL:          0  USELESS:          0
cpu0_STLB AVERAGE iMISS LATENCY: 12.8275 cycles
cpu0_STLB AVERAGE dMISS LATENCY: 80.4506 cycles
cpu0_STLB AVERAGE itMISS LATENCY: 0 cycles
cpu0_STLB AVERAGE dtMISS LATENCY: 0 cycles
cpu0_STLB PAGE CROSSINGS (TLB HIT):         0 
cpu0_STLB PAGE CROSSINGS (TLB MISS):         0 
cpu0_STLB AVERAGE MISS LATENCY: 93.2781 cycles
cpu0_L1D TOTAL       ACCESS:   42706868  HIT:   38429909  MISS:    4276959  iACCESS:          0  iHIT:          0  iMISS:          0  dACCESS:   42419823  dHIT:   38412572  dMISS:    4007251  itACCESS:      32612  itHIT:       2782  itMISS:      29830  dtACCESS:     254433  dtHIT:      14555  dtMISS:     239878
cpu0_L1D LOAD         ACCESS:   19414644  HIT:   17577593  MISS:    1837051  iACCESS:          0  iHIT:          0  iMISS:          0  dACCESS:   19414644  dHIT:   17577593  dMISS:    1837051  itACCESS:          0  itHIT:          0  itMISS:          0  dtACCESS:          0  dtHIT:          0  dtMISS:          0
cpu0_L1D RFO          ACCESS:          0  HIT:          0  MISS:          0  iACCESS:          0  iHIT:          0  iMISS:          0  dACCESS:          0  dHIT:          0  dMISS:          0  itACCESS:          0  itHIT:          0  itMISS:          0  dtACCESS:          0  dtHIT:          0  dtMISS:          0
cpu0_L1D PREFETCH     ACCESS:   12875953  HIT:   11153386  MISS:    1722567  iACCESS:          0  iHIT:          0  iMISS:          0  dACCESS:   12875953  dHIT:   11153386  dMISS:    1722567  itACCESS:          0  itHIT:          0  itMISS:          0  dtACCESS:          0  dtHIT:          0  dtMISS:          0
cpu0_L1D WRITE        ACCESS:   10129226  HIT:    9681593  MISS:     447633  iACCESS:          0  iHIT:          0  iMISS:          0  dACCESS:   10129226  dHIT:    9681593  dMISS:     447633  itACCESS:          0  itHIT:          0  itMISS:          0  dtACCESS:          0  dtHIT:          0  dtMISS:          0
cpu0_L1D TRANSLATION  ACCESS:     287045  HIT:      17337  MISS:     269708  iACCESS:          0  iHIT:          0  iMISS:          0  dACCESS:          0  dHIT:          0  dMISS:          0  itACCESS:      32612  itHIT:       2782  itMISS:      29830  dtACCESS:     254433  dtHIT:      14555  dtMISS:     239878
cpu0_L1D PREFETCH  REQUESTED:   19414644  ISSUED:   17267429  CROSSED:          0  USEFUL:     309923  USELESS:     703333
cpu0_L1D AVERAGE iMISS LATENCY: 0 cycles
cpu0_L1D AVERAGE dMISS LATENCY: 38.2676 cycles
cpu0_L1D AVERAGE itMISS LATENCY: 0.567777 cycles
cpu0_L1D AVERAGE dtMISS LATENCY: 3.42243 cycles
cpu0_L1D PAGE CROSSINGS (TLB HIT):         0 
cpu0_L1D PAGE CROSSINGS (TLB MISS):         0 
cpu0_L1D AVERAGE MISS LATENCY: 42.2578 cycles
cpu0_L2C TOTAL       ACCESS:    7289994  HIT:    1619436  MISS:    5670558  iACCESS:    3379589  iHIT:     840271  iMISS:    2539318  dACCESS:    3647732  dHIT:     636892  dMISS:    3010840  itACCESS:      29830  itHIT:      15028  itMISS:      14802  dtACCESS:     232843  dtHIT:     127245  dtMISS:     105598
cpu0_L2C LOAD         ACCESS:    1726114  HIT:     261138  MISS:    1464976  iACCESS:     772972  iHIT:     136754  iMISS:     636218  dACCESS:     953142  dHIT:     124384  dMISS:     828758  itACCESS:          0  itHIT:          0  itMISS:          0  dtACCESS:          0  dtHIT:          0  dtMISS:          0
cpu0_L2C RFO          ACCESS:     163355  HIT:      45081  MISS:     118274  iACCESS:          0  iHIT:          0  iMISS:          0  dACCESS:     163355  dHIT:      45081  dMISS:     118274  itACCESS:          0  itHIT:          0  itMISS:          0  dtACCESS:          0  dtHIT:          0  dtMISS:          0
cpu0_L2C PREFETCH     ACCESS:    4864559  HIT:    1048038  MISS:    3816521  iACCESS:    2606617  iHIT:     703517  iMISS:    1903100  dACCESS:    2257942  dHIT:     344521  dMISS:    1913421  itACCESS:          0  itHIT:          0  itMISS:          0  dtACCESS:          0  dtHIT:          0  dtMISS:          0
cpu0_L2C WRITE        ACCESS:     273293  HIT:     122906  MISS:     150387  iACCESS:          0  iHIT:          0  iMISS:          0  dACCESS:     273293  dHIT:     122906  dMISS:     150387  itACCESS:          0  itHIT:          0  itMISS:          0  dtACCESS:          0  dtHIT:          0  dtMISS:          0
cpu0_L2C TRANSLATION  ACCESS:     262673  HIT:     142273  MISS:     120400  iACCESS:          0  iHIT:          0  iMISS:          0  dACCESS:          0  dHIT:          0  dMISS:          0  itACCESS:      29830  itHIT:      15028  itMISS:      14802  dtACCESS:     232843  dtHIT:     127245  dtMISS:     105598
cpu0_L2C PREFETCH  REQUESTED:    1512959  ISSUED:    1512951  CROSSED:          0  USEFUL:     433412  USELESS:     416294
cpu0_L2C AVERAGE iMISS LATENCY: 22.4927 cycles
cpu0_L2C AVERAGE dMISS LATENCY: 36.5276 cycles
cpu0_L2C AVERAGE itMISS LATENCY: 0.378123 cycles
cpu0_L2C AVERAGE dtMISS LATENCY: 2.19141 cycles
cpu0_L2C PAGE CROSSINGS (TLB HIT):         0 
cpu0_L2C PAGE CROSSINGS (TLB MISS):         0 
cpu0_L2C AVERAGE MISS LATENCY: 61.5898 cycles
LLC TOTAL       ACCESS:    5481119  HIT:    3916985  MISS:    1564134  iACCESS:    2462512  iHIT:    1916352  iMISS:     546160  dACCESS:    2898207  dHIT:    1947464  dMISS:     950743  itACCESS:      14802  itHIT:       4205  itMISS:      10597  dtACCESS:     105598  dtHIT:      48964  dtMISS:      56634
LLC LOAD         ACCESS:    1458643  HIT:    1112568  MISS:     346075  iACCESS:     635004  iHIT:     521997  iMISS:     113007  dACCESS:     823639  dHIT:     590571  dMISS:     233068  itACCESS:          0  itHIT:          0  itMISS:          0  dtACCESS:          0  dtHIT:          0  dtMISS:          0
LLC RFO          ACCESS:     118259  HIT:      63682  MISS:      54577  iACCESS:          0  iHIT:          0  iMISS:          0  dACCESS:     118259  dHIT:      63682  dMISS:      54577  itACCESS:          0  itHIT:          0  itMISS:          0  dtACCESS:          0  dtHIT:          0  dtMISS:          0
LLC PREFETCH     ACCESS:    3636545  HIT:    2551332  MISS:    1085213  iACCESS:    1827508  iHIT:    1394355  iMISS:     433153  dACCESS:    1809037  dHIT:    1156977  dMISS:     652060  itACCESS:          0  itHIT:          0  itMISS:          0  dtACCESS:          0  dtHIT:          0  dtMISS:          0
LLC WRITE        ACCESS:     147272  HIT:     136234  MISS:      11038  iACCESS:          0  iHIT:          0  iMISS:          0  dACCESS:     147272  dHIT:     136234  dMISS:      11038  itACCESS:          0  itHIT:          0  itMISS:          0  dtACCESS:          0  dtHIT:          0  dtMISS:          0
LLC TRANSLATION  ACCESS:     120400  HIT:      53169  MISS:      67231  iACCESS:          0  iHIT:          0  iMISS:          0  dACCESS:          0  dHIT:          0  dMISS:          0  itACCESS:      14802  itHIT:       4205  itMISS:      10597  dtACCESS:     105598  dtHIT:      48964  dtMISS:      56634
LLC PREFETCH  REQUESTED:          0  ISSUED:          0  CROSSED:          0  USEFUL:          0  USELESS:          0
LLC AVERAGE iMISS LATENCY: 51.0734 cycles
LLC AVERAGE dMISS LATENCY: 99.4944 cycles
LLC AVERAGE itMISS LATENCY: 1.18476 cycles
LLC AVERAGE dtMISS LATENCY: 6.62677 cycles
LLC PAGE CROSSINGS (TLB HIT):         0 
LLC PAGE CROSSINGS (TLB MISS):         0 
LLC AVERAGE MISS LATENCY: 158.38 cycles

PageTableWalker TOTAL       ACCESS:     100028  
PageTableWalker AVERAGE LATENCY: 4.47955 cycles
PageTableWalker TOTAL LATENCY: 448080 cycles

DRAM Statistics
Channel 0
 RQ ROW_BUFFER_HIT:     462369
  ROW_BUFFER_MISS:    1073564
 AVG DBUS CONGESTED CYCLE:      3.642
 WQ ROW_BUFFER_HIT:      29448
  ROW_BUFFER_MISS:      23668  FULL:          0

