last_page:0x200000000000000
VMEM_RES_CAP:0x100000
PAGE_SIZE:4096
LOG2_PAGE_SIZE:12
LOG2_PAGE_TABLE_SIZE:9
page_table_levels:5
WARNING: physical memory size is smaller than virtual memory size
FDiP enabled with aggresivity 16

*** ChampSim Multicore Out-of-Order Simulator ***

Warmup Instructions: 50000000
Simulation Instructions: 100000000
Number of CPUs: 1
Small page size: 4096
Large page size: 2097152

CPU 0 Bimodal branch predictor
Basic BTB sets: 1024 ways: 8 indirect buffer size: 4096 RAS size: 64
Instruction page size distrubution: 0
Loading instruction page size distribution from /home/bsc/bsc018186/scratch/itp_asplos25_AE/dump/srv495_ap.pdst
Data page size distrubution: 0
Loading data page size distribution from /home/bsc/bsc018186/scratch/itp_asplos25_AE/dump/srv495_ap.pdst
cpu0_L2C IP-based stride prefetcher
cpu0_L1D next line prefetcher
cpu0_L1I next line prefetcher
Off-chip DRAM Size: 4 GiB Channels: 1 Width: 64-bit Data Rate: 3200 MT/s
Heartbeat CPU 0 instructions: 10000001 cycles: 2500197 heartbeat IPC: 3.99969 cumulative IPC: 3.99969 (Simulation time: 0 hr 0 min 35 sec) 
Heartbeat CPU 0 instructions: 20000001 cycles: 5000276 heartbeat IPC: 3.99988 cumulative IPC: 3.99978 (Simulation time: 0 hr 1 min 12 sec) 
Heartbeat CPU 0 instructions: 30000000 cycles: 7500402 heartbeat IPC: 3.9998 cumulative IPC: 3.99979 (Simulation time: 0 hr 1 min 49 sec) 
Heartbeat CPU 0 instructions: 40000002 cycles: 10000405 heartbeat IPC: 4 cumulative IPC: 3.99984 (Simulation time: 0 hr 2 min 27 sec) 
Heartbeat CPU 0 instructions: 50000001 cycles: 12500429 heartbeat IPC: 3.99997 cumulative IPC: 3.99987 (Simulation time: 0 hr 3 min 5 sec) 
Warmup finished CPU 0 instructions: 50000001 cycles: 12500430 cumulative IPC: 3.99987 (Simulation time: 0 hr 3 min 5 sec) 

Warmup complete CPU 0 instructions: 50000001 cycles: 12500430 (Simulation time: 0 hr 3 min 5 sec) 

Heartbeat CPU 0 instructions: 60000000 cycles: 30871976 heartbeat IPC: 0.54432 cumulative IPC: 0.54432 (Simulation time: 0 hr 4 min 10 sec) 
Heartbeat CPU 0 instructions: 70000000 cycles: 49328070 heartbeat IPC: 0.541827 cumulative IPC: 0.543071 (Simulation time: 0 hr 5 min 16 sec) 
Heartbeat CPU 0 instructions: 80000001 cycles: 67389818 heartbeat IPC: 0.553657 cumulative IPC: 0.546554 (Simulation time: 0 hr 6 min 21 sec) 
Heartbeat CPU 0 instructions: 90000000 cycles: 85057234 heartbeat IPC: 0.566014 cumulative IPC: 0.551293 (Simulation time: 0 hr 7 min 25 sec) 
Heartbeat CPU 0 instructions: 100000004 cycles: 102910056 heartbeat IPC: 0.560136 cumulative IPC: 0.553039 (Simulation time: 0 hr 8 min 30 sec) 
*** Reached end of trace: /gpfs/projects/bsc18/MN4/bsc18/romol/ChampSim/traces/qualcomm_srv/srv495_ap.champsimtrace.xz
Heartbeat CPU 0 instructions: 110000004 cycles: 120918953 heartbeat IPC: 0.555282 cumulative IPC: 0.553411 (Simulation time: 0 hr 9 min 35 sec) 
Heartbeat CPU 0 instructions: 120000004 cycles: 139378016 heartbeat IPC: 0.54174 cumulative IPC: 0.551713 (Simulation time: 0 hr 10 min 41 sec) 
Heartbeat CPU 0 instructions: 130000001 cycles: 157675769 heartbeat IPC: 0.546516 cumulative IPC: 0.551058 (Simulation time: 0 hr 11 min 46 sec) 
Heartbeat CPU 0 instructions: 140000002 cycles: 176005232 heartbeat IPC: 0.54557 cumulative IPC: 0.550443 (Simulation time: 0 hr 12 min 52 sec) 
Heartbeat CPU 0 instructions: 150000002 cycles: 194789386 heartbeat IPC: 0.532364 cumulative IPC: 0.54858 (Simulation time: 0 hr 13 min 59 sec) 
Simulation finished CPU 0 instructions: 100000001 cycles: 182288957 cumulative IPC: 0.54858 (Simulation time: 0 hr 13 min 59 sec) 

Simulation complete CPU 0 instructions: 100000001 cycles: 182288957 (Simulation time: 0 hr 13 min 59 sec) 


ChampSim completed all CPUs

Saving instructions large page distribution to /home/bsc/bsc018186/scratch/itp_asplos25_AE/dump/srv495_ap.pdst...
Saving data large page distribution to /home/bsc/bsc018186/scratch/itp_asplos25_AE/dump/srv495_ap.pdst...
=== Simulation ===
CPU 0 runs /gpfs/projects/bsc18/MN4/bsc18/romol/ChampSim/traces/qualcomm_srv/srv495_ap.champsimtrace.xz

Region of Interest Statistics

CPU 0 cumulative IPC: 0.54858 instructions: 100000001 cycles: 182288957
CPU 0 Branch Prediction Accuracy: 80.2549% MPKI: 35.6076 Average ROB Occupancy at Mispredict: 10.3371
Branch type MPKI
BRANCH_DIRECT_JUMP: 1.32005
BRANCH_INDIRECT: 17.7862
BRANCH_CONDITIONAL: 11.5962
BRANCH_DIRECT_CALL: 2.47777
BRANCH_INDIRECT_CALL: 0.69295
BRANCH_RETURN: 1.73447

Instructions large pages: 0
Instructions small pages: 1075
Large page distribution for instructions: 0%

Data large pages: 0
Data small pages: 4728
Large page distribution for data: 0%

cpu0_L1I TOTAL       ACCESS:   35714313  HIT:   27381613  MISS:    8332700  iACCESS:   35714313  iHIT:   27381613  iMISS:    8332700  dACCESS:          0  dHIT:          0  dMISS:          0  itACCESS:          0  itHIT:          0  itMISS:          0  dtACCESS:          0  dtHIT:          0  dtMISS:          0
cpu0_L1I LOAD         ACCESS:   10288004  HIT:    8008430  MISS:    2279574  iACCESS:   10288004  iHIT:    8008430  iMISS:    2279574  dACCESS:          0  dHIT:          0  dMISS:          0  itACCESS:          0  itHIT:          0  itMISS:          0  dtACCESS:          0  dtHIT:          0  dtMISS:          0
cpu0_L1I RFO          ACCESS:          0  HIT:          0  MISS:          0  iACCESS:          0  iHIT:          0  iMISS:          0  dACCESS:          0  dHIT:          0  dMISS:          0  itACCESS:          0  itHIT:          0  itMISS:          0  dtACCESS:          0  dtHIT:          0  dtMISS:          0
cpu0_L1I PREFETCH     ACCESS:   25426309  HIT:   19373183  MISS:    6053126  iACCESS:   25426309  iHIT:   19373183  iMISS:    6053126  dACCESS:          0  dHIT:          0  dMISS:          0  itACCESS:          0  itHIT:          0  itMISS:          0  dtACCESS:          0  dtHIT:          0  dtMISS:          0
cpu0_L1I WRITE        ACCESS:          0  HIT:          0  MISS:          0  iACCESS:          0  iHIT:          0  iMISS:          0  dACCESS:          0  dHIT:          0  dMISS:          0  itACCESS:          0  itHIT:          0  itMISS:          0  dtACCESS:          0  dtHIT:          0  dtMISS:          0
cpu0_L1I TRANSLATION  ACCESS:          0  HIT:          0  MISS:          0  iACCESS:          0  iHIT:          0  iMISS:          0  dACCESS:          0  dHIT:          0  dMISS:          0  itACCESS:          0  itHIT:          0  itMISS:          0  dtACCESS:          0  dtHIT:          0  dtMISS:          0
cpu0_L1I PREFETCH  REQUESTED:   27619054  ISSUED:   27616818  CROSSED:          0  USEFUL:    1976231  USELESS:     652787
cpu0_L1I AVERAGE iMISS LATENCY: 18.8404 cycles
cpu0_L1I AVERAGE dMISS LATENCY: 0 cycles
cpu0_L1I AVERAGE itMISS LATENCY: 0 cycles
cpu0_L1I AVERAGE dtMISS LATENCY: 0 cycles
cpu0_L1I PAGE CROSSINGS (TLB HIT):         0 
cpu0_L1I PAGE CROSSINGS (TLB MISS):         0 
cpu0_L1I AVERAGE MISS LATENCY: 18.8404 cycles
cpu0_ITLB TOTAL       ACCESS:   29896524  HIT:   27957458  MISS:    1939066  iACCESS:   29896524  iHIT:   27957458  iMISS:    1939066  dACCESS:          0  dHIT:          0  dMISS:          0  itACCESS:          0  itHIT:          0  itMISS:          0  dtACCESS:          0  dtHIT:          0  dtMISS:          0
cpu0_ITLB LOAD         ACCESS:   29896524  HIT:   27957458  MISS:    1939066  iACCESS:   29896524  iHIT:   27957458  iMISS:    1939066  dACCESS:          0  dHIT:          0  dMISS:          0  itACCESS:          0  itHIT:          0  itMISS:          0  dtACCESS:          0  dtHIT:          0  dtMISS:          0
cpu0_ITLB RFO          ACCESS:          0  HIT:          0  MISS:          0  iACCESS:          0  iHIT:          0  iMISS:          0  dACCESS:          0  dHIT:          0  dMISS:          0  itACCESS:          0  itHIT:          0  itMISS:          0  dtACCESS:          0  dtHIT:          0  dtMISS:          0
cpu0_ITLB PREFETCH     ACCESS:          0  HIT:          0  MISS:          0  iACCESS:          0  iHIT:          0  iMISS:          0  dACCESS:          0  dHIT:          0  dMISS:          0  itACCESS:          0  itHIT:          0  itMISS:          0  dtACCESS:          0  dtHIT:          0  dtMISS:          0
cpu0_ITLB WRITE        ACCESS:          0  HIT:          0  MISS:          0  iACCESS:          0  iHIT:          0  iMISS:          0  dACCESS:          0  dHIT:          0  dMISS:          0  itACCESS:          0  itHIT:          0  itMISS:          0  dtACCESS:          0  dtHIT:          0  dtMISS:          0
cpu0_ITLB TRANSLATION  ACCESS:          0  HIT:          0  MISS:          0  iACCESS:          0  iHIT:          0  iMISS:          0  dACCESS:          0  dHIT:          0  dMISS:          0  itACCESS:          0  itHIT:          0  itMISS:          0  dtACCESS:          0  dtHIT:          0  dtMISS:          0
cpu0_ITLB PREFETCH  REQUESTED:          0  ISSUED:          0  CROSSED:          0  USEFUL:     330293  USELESS:      61351
cpu0_ITLB AVERAGE iMISS LATENCY: 3.91959 cycles
cpu0_ITLB AVERAGE dMISS LATENCY: 0 cycles
cpu0_ITLB AVERAGE itMISS LATENCY: 0 cycles
cpu0_ITLB AVERAGE dtMISS LATENCY: 0 cycles
cpu0_ITLB PAGE CROSSINGS (TLB HIT):         0 
cpu0_ITLB PAGE CROSSINGS (TLB MISS):         0 
cpu0_ITLB AVERAGE MISS LATENCY: 3.91959 cycles
cpu0_DTLB TOTAL       ACCESS:   28001136  HIT:   26066064  MISS:    1935072  iACCESS:          0  iHIT:          0  iMISS:          0  dACCESS:   28001136  dHIT:   26066064  dMISS:    1935072  itACCESS:          0  itHIT:          0  itMISS:          0  dtACCESS:          0  dtHIT:          0  dtMISS:          0
cpu0_DTLB LOAD         ACCESS:   28001136  HIT:   26066064  MISS:    1935072  iACCESS:          0  iHIT:          0  iMISS:          0  dACCESS:   28001136  dHIT:   26066064  dMISS:    1935072  itACCESS:          0  itHIT:          0  itMISS:          0  dtACCESS:          0  dtHIT:          0  dtMISS:          0
cpu0_DTLB RFO          ACCESS:          0  HIT:          0  MISS:          0  iACCESS:          0  iHIT:          0  iMISS:          0  dACCESS:          0  dHIT:          0  dMISS:          0  itACCESS:          0  itHIT:          0  itMISS:          0  dtACCESS:          0  dtHIT:          0  dtMISS:          0
cpu0_DTLB PREFETCH     ACCESS:          0  HIT:          0  MISS:          0  iACCESS:          0  iHIT:          0  iMISS:          0  dACCESS:          0  dHIT:          0  dMISS:          0  itACCESS:          0  itHIT:          0  itMISS:          0  dtACCESS:          0  dtHIT:          0  dtMISS:          0
cpu0_DTLB WRITE        ACCESS:          0  HIT:          0  MISS:          0  iACCESS:          0  iHIT:          0  iMISS:          0  dACCESS:          0  dHIT:          0  dMISS:          0  itACCESS:          0  itHIT:          0  itMISS:          0  dtACCESS:          0  dtHIT:          0  dtMISS:          0
cpu0_DTLB TRANSLATION  ACCESS:          0  HIT:          0  MISS:          0  iACCESS:          0  iHIT:          0  iMISS:          0  dACCESS:          0  dHIT:          0  dMISS:          0  itACCESS:          0  itHIT:          0  itMISS:          0  dtACCESS:          0  dtHIT:          0  dtMISS:          0
cpu0_DTLB PREFETCH  REQUESTED:          0  ISSUED:          0  CROSSED:          0  USEFUL:          0  USELESS:          0
cpu0_DTLB AVERAGE iMISS LATENCY: 0 cycles
cpu0_DTLB AVERAGE dMISS LATENCY: 11.7112 cycles
cpu0_DTLB AVERAGE itMISS LATENCY: 0 cycles
cpu0_DTLB AVERAGE dtMISS LATENCY: 0 cycles
cpu0_DTLB PAGE CROSSINGS (TLB HIT):         0 
cpu0_DTLB PAGE CROSSINGS (TLB MISS):         0 
cpu0_DTLB AVERAGE MISS LATENCY: 11.7112 cycles
cpu0_STLB TOTAL       ACCESS:    1611181  HIT:    1373926  MISS:     237255  iACCESS:     391654  iHIT:     301831  iMISS:      89823  dACCESS:    1219527  dHIT:    1072095  dMISS:     147432  itACCESS:          0  itHIT:          0  itMISS:          0  dtACCESS:          0  dtHIT:          0  dtMISS:          0
cpu0_STLB LOAD         ACCESS:    1611181  HIT:    1373926  MISS:     237255  iACCESS:     391654  iHIT:     301831  iMISS:      89823  dACCESS:    1219527  dHIT:    1072095  dMISS:     147432  itACCESS:          0  itHIT:          0  itMISS:          0  dtACCESS:          0  dtHIT:          0  dtMISS:          0
cpu0_STLB RFO          ACCESS:          0  HIT:          0  MISS:          0  iACCESS:          0  iHIT:          0  iMISS:          0  dACCESS:          0  dHIT:          0  dMISS:          0  itACCESS:          0  itHIT:          0  itMISS:          0  dtACCESS:          0  dtHIT:          0  dtMISS:          0
cpu0_STLB PREFETCH     ACCESS:          0  HIT:          0  MISS:          0  iACCESS:          0  iHIT:          0  iMISS:          0  dACCESS:          0  dHIT:          0  dMISS:          0  itACCESS:          0  itHIT:          0  itMISS:          0  dtACCESS:          0  dtHIT:          0  dtMISS:          0
cpu0_STLB WRITE        ACCESS:          0  HIT:          0  MISS:          0  iACCESS:          0  iHIT:          0  iMISS:          0  dACCESS:          0  dHIT:          0  dMISS:          0  itACCESS:          0  itHIT:          0  itMISS:          0  dtACCESS:          0  dtHIT:          0  dtMISS:          0
cpu0_STLB TRANSLATION  ACCESS:          0  HIT:          0  MISS:          0  iACCESS:          0  iHIT:          0  iMISS:          0  dACCESS:          0  dHIT:          0  dMISS:          0  itACCESS:          0  itHIT:          0  itMISS:          0  dtACCESS:          0  dtHIT:          0  dtMISS:          0
cpu0_STLB PREFETCH  REQUESTED:          0  ISSUED:          0  CROSSED:          0  USEFUL:          0  USELESS:          0
cpu0_STLB AVERAGE iMISS LATENCY: 18.856 cycles
cpu0_STLB AVERAGE dMISS LATENCY: 54.4393 cycles
cpu0_STLB AVERAGE itMISS LATENCY: 0 cycles
cpu0_STLB AVERAGE dtMISS LATENCY: 0 cycles
cpu0_STLB PAGE CROSSINGS (TLB HIT):         0 
cpu0_STLB PAGE CROSSINGS (TLB MISS):         0 
cpu0_STLB AVERAGE MISS LATENCY: 73.2953 cycles
cpu0_L1D TOTAL       ACCESS:   42685836  HIT:   38448066  MISS:    4237770  iACCESS:          0  iHIT:          0  iMISS:          0  dACCESS:   42388564  dHIT:   38420136  dMISS:    3968428  itACCESS:      96243  itHIT:      15759  itMISS:      80484  dtACCESS:     201029  dtHIT:      12171  dtMISS:     188858
cpu0_L1D LOAD         ACCESS:   19432438  HIT:   17621859  MISS:    1810579  iACCESS:          0  iHIT:          0  iMISS:          0  dACCESS:   19432438  dHIT:   17621859  dMISS:    1810579  itACCESS:          0  itHIT:          0  itMISS:          0  dtACCESS:          0  dtHIT:          0  dtMISS:          0
cpu0_L1D RFO          ACCESS:          0  HIT:          0  MISS:          0  iACCESS:          0  iHIT:          0  iMISS:          0  dACCESS:          0  dHIT:          0  dMISS:          0  itACCESS:          0  itHIT:          0  itMISS:          0  dtACCESS:          0  dtHIT:          0  dtMISS:          0
cpu0_L1D PREFETCH     ACCESS:   12808361  HIT:   11111290  MISS:    1697071  iACCESS:          0  iHIT:          0  iMISS:          0  dACCESS:   12808361  dHIT:   11111290  dMISS:    1697071  itACCESS:          0  itHIT:          0  itMISS:          0  dtACCESS:          0  dtHIT:          0  dtMISS:          0
cpu0_L1D WRITE        ACCESS:   10147765  HIT:    9686987  MISS:     460778  iACCESS:          0  iHIT:          0  iMISS:          0  dACCESS:   10147765  dHIT:    9686987  dMISS:     460778  itACCESS:          0  itHIT:          0  itMISS:          0  dtACCESS:          0  dtHIT:          0  dtMISS:          0
cpu0_L1D TRANSLATION  ACCESS:     297272  HIT:      27930  MISS:     269342  iACCESS:          0  iHIT:          0  iMISS:          0  dACCESS:          0  dHIT:          0  dMISS:          0  itACCESS:      96243  itHIT:      15759  itMISS:      80484  dtACCESS:     201029  dtHIT:      12171  dtMISS:     188858
cpu0_L1D PREFETCH  REQUESTED:   19432438  ISSUED:   17298170  CROSSED:          0  USEFUL:     312120  USELESS:     707958
cpu0_L1D AVERAGE iMISS LATENCY: 0 cycles
cpu0_L1D AVERAGE dMISS LATENCY: 37.9314 cycles
cpu0_L1D AVERAGE itMISS LATENCY: 0.873169 cycles
cpu0_L1D AVERAGE dtMISS LATENCY: 2.58594 cycles
cpu0_L1D PAGE CROSSINGS (TLB HIT):         0 
cpu0_L1D PAGE CROSSINGS (TLB MISS):         0 
cpu0_L1D AVERAGE MISS LATENCY: 41.3905 cycles
cpu0_L2C TOTAL       ACCESS:    7278667  HIT:    1670269  MISS:    5608398  iACCESS:    3354226  iHIT:     851566  iMISS:    2502660  dACCESS:    3659603  dHIT:     652073  dMISS:    3007530  itACCESS:      80484  itHIT:      58543  itMISS:      21941  dtACCESS:     184354  dtHIT:     108087  dtMISS:      76267
cpu0_L2C LOAD         ACCESS:    1715820  HIT:     258185  MISS:    1457635  iACCESS:     762146  iHIT:     134348  iMISS:     627798  dACCESS:     953674  dHIT:     123837  dMISS:     829837  itACCESS:          0  itHIT:          0  itMISS:          0  dtACCESS:          0  dtHIT:          0  dtMISS:          0
cpu0_L2C RFO          ACCESS:     165868  HIT:      45074  MISS:     120794  iACCESS:          0  iHIT:          0  iMISS:          0  dACCESS:     165868  dHIT:      45074  dMISS:     120794  itACCESS:          0  itHIT:          0  itMISS:          0  dtACCESS:          0  dtHIT:          0  dtMISS:          0
cpu0_L2C PREFETCH     ACCESS:    4856499  HIT:    1076346  MISS:    3780153  iACCESS:    2592080  iHIT:     717218  iMISS:    1874862  dACCESS:    2264419  dHIT:     359128  dMISS:    1905291  itACCESS:          0  itHIT:          0  itMISS:          0  dtACCESS:          0  dtHIT:          0  dtMISS:          0
cpu0_L2C WRITE        ACCESS:     275642  HIT:     124034  MISS:     151608  iACCESS:          0  iHIT:          0  iMISS:          0  dACCESS:     275642  dHIT:     124034  dMISS:     151608  itACCESS:          0  itHIT:          0  itMISS:          0  dtACCESS:          0  dtHIT:          0  dtMISS:          0
cpu0_L2C TRANSLATION  ACCESS:     264838  HIT:     166630  MISS:      98208  iACCESS:          0  iHIT:          0  iMISS:          0  dACCESS:          0  dHIT:          0  dMISS:          0  itACCESS:      80484  itHIT:      58543  itMISS:      21941  dtACCESS:     184354  dtHIT:     108087  dtMISS:      76267
cpu0_L2C PREFETCH  REQUESTED:    1503777  ISSUED:    1503768  CROSSED:          0  USEFUL:     416009  USELESS:     430349
cpu0_L2C AVERAGE iMISS LATENCY: 22.6518 cycles
cpu0_L2C AVERAGE dMISS LATENCY: 36.3596 cycles
cpu0_L2C AVERAGE itMISS LATENCY: 0.526307 cycles
cpu0_L2C AVERAGE dtMISS LATENCY: 1.64327 cycles
cpu0_L2C PAGE CROSSINGS (TLB HIT):         0 
cpu0_L2C PAGE CROSSINGS (TLB MISS):         0 
cpu0_L2C AVERAGE MISS LATENCY: 61.1809 cycles
LLC TOTAL       ACCESS:    5430425  HIT:    3881842  MISS:    1548583  iACCESS:    2426029  iHIT:    1871108  iMISS:     554921  dACCESS:    2906188  dHIT:    1968931  dMISS:     937257  itACCESS:      21941  itHIT:       7377  itMISS:      14564  dtACCESS:      76267  dtHIT:      34426  dtMISS:      41841
LLC LOAD         ACCESS:    1451263  HIT:    1109563  MISS:     341700  iACCESS:     626437  iHIT:     511087  iMISS:     115350  dACCESS:     824826  dHIT:     598476  dMISS:     226350  itACCESS:          0  itHIT:          0  itMISS:          0  dtACCESS:          0  dtHIT:          0  dtMISS:          0
LLC RFO          ACCESS:     120794  HIT:      65814  MISS:      54980  iACCESS:          0  iHIT:          0  iMISS:          0  dACCESS:     120794  dHIT:      65814  dMISS:      54980  itACCESS:          0  itHIT:          0  itMISS:          0  dtACCESS:          0  dtHIT:          0  dtMISS:          0
LLC PREFETCH     ACCESS:    3607371  HIT:    2522256  MISS:    1085115  iACCESS:    1799592  iHIT:    1360021  iMISS:     439571  dACCESS:    1807779  dHIT:    1162235  dMISS:     645544  itACCESS:          0  itHIT:          0  itMISS:          0  dtACCESS:          0  dtHIT:          0  dtMISS:          0
LLC WRITE        ACCESS:     152789  HIT:     142406  MISS:      10383  iACCESS:          0  iHIT:          0  iMISS:          0  dACCESS:     152789  dHIT:     142406  dMISS:      10383  itACCESS:          0  itHIT:          0  itMISS:          0  dtACCESS:          0  dtHIT:          0  dtMISS:          0
LLC TRANSLATION  ACCESS:      98208  HIT:      41803  MISS:      56405  iACCESS:          0  iHIT:          0  iMISS:          0  dACCESS:          0  dHIT:          0  dMISS:          0  itACCESS:      21941  itHIT:       7377  itMISS:      14564  dtACCESS:      76267  dtHIT:      34426  dtMISS:      41841
LLC PREFETCH  REQUESTED:          0  ISSUED:          0  CROSSED:          0  USEFUL:          0  USELESS:          0
LLC AVERAGE iMISS LATENCY: 51.7002 cycles
LLC AVERAGE dMISS LATENCY: 98.1929 cycles
LLC AVERAGE itMISS LATENCY: 1.62807 cycles
LLC AVERAGE dtMISS LATENCY: 4.9897 cycles
LLC PAGE CROSSINGS (TLB HIT):         0 
LLC PAGE CROSSINGS (TLB MISS):         0 
LLC AVERAGE MISS LATENCY: 156.511 cycles

PageTableWalker TOTAL       ACCESS:     119252  
PageTableWalker AVERAGE LATENCY: 4.12828 cycles
PageTableWalker TOTAL LATENCY: 492305 cycles

DRAM Statistics
Channel 0
 RQ ROW_BUFFER_HIT:     469078
  ROW_BUFFER_MISS:    1056874
 AVG DBUS CONGESTED CYCLE:    3.62837
 WQ ROW_BUFFER_HIT:      30330
  ROW_BUFFER_MISS:      23305  FULL:          0

