last_page:0x200000000000000
VMEM_RES_CAP:0x100000
PAGE_SIZE:4096
LOG2_PAGE_SIZE:12
LOG2_PAGE_TABLE_SIZE:9
page_table_levels:5
WARNING: physical memory size is smaller than virtual memory size
FDiP enabled with aggresivity 16

*** ChampSim Multicore Out-of-Order Simulator ***

Warmup Instructions: 50000000
Simulation Instructions: 100000000
Number of CPUs: 1
Small page size: 4096
Large page size: 2097152

CPU 0 Bimodal branch predictor
Basic BTB sets: 1024 ways: 8 indirect buffer size: 4096 RAS size: 64
Instruction page size distrubution: 0
Loading instruction page size distribution from /home/bsc/bsc018186/scratch/itp_asplos25_AE/dump/srv48_ap.pdst
Data page size distrubution: 0
Loading data page size distribution from /home/bsc/bsc018186/scratch/itp_asplos25_AE/dump/srv48_ap.pdst
cpu0_L2C IP-based stride prefetcher
cpu0_L2C is using PTP replacement policy:
	TLB_STRESS_THRESHOLD:0
	PTE_EVICTION_RATIO:0
cpu0_L1D next line prefetcher
CHiRPing...
cpu0_L1I next line prefetcher
Off-chip DRAM Size: 4 GiB Channels: 1 Width: 64-bit Data Rate: 3200 MT/s
Heartbeat CPU 0 instructions: 10000001 cycles: 2500137 heartbeat IPC: 3.99979 cumulative IPC: 3.99979 (Simulation time: 0 hr 0 min 39 sec) 
Heartbeat CPU 0 instructions: 20000002 cycles: 5000145 heartbeat IPC: 3.99999 cumulative IPC: 3.99989 (Simulation time: 0 hr 1 min 19 sec) 
Heartbeat CPU 0 instructions: 30000002 cycles: 7500164 heartbeat IPC: 3.99997 cumulative IPC: 3.99992 (Simulation time: 0 hr 2 min 0 sec) 
Heartbeat CPU 0 instructions: 40000003 cycles: 10000274 heartbeat IPC: 3.99983 cumulative IPC: 3.9999 (Simulation time: 0 hr 2 min 41 sec) 
Heartbeat CPU 0 instructions: 50000003 cycles: 12500916 heartbeat IPC: 3.99898 cumulative IPC: 3.99971 (Simulation time: 0 hr 3 min 23 sec) 
Warmup finished CPU 0 instructions: 50000003 cycles: 12500917 cumulative IPC: 3.99971 (Simulation time: 0 hr 3 min 23 sec) 

Warmup complete CPU 0 instructions: 50000003 cycles: 12500917 (Simulation time: 0 hr 3 min 23 sec) 

Heartbeat CPU 0 instructions: 60000000 cycles: 31123730 heartbeat IPC: 0.536976 cumulative IPC: 0.536976 (Simulation time: 0 hr 4 min 34 sec) 
Heartbeat CPU 0 instructions: 70000002 cycles: 49387841 heartbeat IPC: 0.547522 cumulative IPC: 0.542198 (Simulation time: 0 hr 5 min 43 sec) 
Heartbeat CPU 0 instructions: 80000003 cycles: 67562441 heartbeat IPC: 0.550219 cumulative IPC: 0.544846 (Simulation time: 0 hr 6 min 53 sec) 
Heartbeat CPU 0 instructions: 90000004 cycles: 86285837 heartbeat IPC: 0.534092 cumulative IPC: 0.542117 (Simulation time: 0 hr 8 min 3 sec) 
Heartbeat CPU 0 instructions: 100000000 cycles: 106047133 heartbeat IPC: 0.50604 cumulative IPC: 0.534496 (Simulation time: 0 hr 9 min 15 sec) 
*** Reached end of trace: /gpfs/projects/bsc18/MN4/bsc18/romol/ChampSim/traces/qualcomm_srv/srv48_ap.champsimtrace.xz
Heartbeat CPU 0 instructions: 110000000 cycles: 125876872 heartbeat IPC: 0.504294 cumulative IPC: 0.529213 (Simulation time: 0 hr 10 min 26 sec) 
Heartbeat CPU 0 instructions: 120000000 cycles: 146046536 heartbeat IPC: 0.495795 cumulative IPC: 0.524166 (Simulation time: 0 hr 11 min 38 sec) 
Heartbeat CPU 0 instructions: 130000004 cycles: 165410514 heartbeat IPC: 0.516424 cumulative IPC: 0.523185 (Simulation time: 0 hr 12 min 49 sec) 
Heartbeat CPU 0 instructions: 140000001 cycles: 185417672 heartbeat IPC: 0.499821 cumulative IPC: 0.520482 (Simulation time: 0 hr 13 min 59 sec) 
Heartbeat CPU 0 instructions: 150000003 cycles: 206451906 heartbeat IPC: 0.475416 cumulative IPC: 0.515595 (Simulation time: 0 hr 15 min 9 sec) 
Simulation finished CPU 0 instructions: 100000000 cycles: 193950990 cumulative IPC: 0.515595 (Simulation time: 0 hr 15 min 9 sec) 

Simulation complete CPU 0 instructions: 100000000 cycles: 193950990 (Simulation time: 0 hr 15 min 9 sec) 


ChampSim completed all CPUs

Saving instructions large page distribution to /home/bsc/bsc018186/scratch/itp_asplos25_AE/dump/srv48_ap.pdst...
Saving data large page distribution to /home/bsc/bsc018186/scratch/itp_asplos25_AE/dump/srv48_ap.pdst...
=== Simulation ===
CPU 0 runs /gpfs/projects/bsc18/MN4/bsc18/romol/ChampSim/traces/qualcomm_srv/srv48_ap.champsimtrace.xz

Region of Interest Statistics

CPU 0 cumulative IPC: 0.515595 instructions: 100000000 cycles: 193950990
CPU 0 Branch Prediction Accuracy: 80.0806% MPKI: 35.9868 Average ROB Occupancy at Mispredict: 10.3912
Branch type MPKI
BRANCH_DIRECT_JUMP: 1.34387
BRANCH_INDIRECT: 18.0495
BRANCH_CONDITIONAL: 11.6578
BRANCH_DIRECT_CALL: 2.53508
BRANCH_INDIRECT_CALL: 0.670181
BRANCH_RETURN: 1.7305

Instructions large pages: 0
Instructions small pages: 5912
Large page distribution for instructions: 0%

Data large pages: 0
Data small pages: 4817
Large page distribution for data: 0%

cpu0_L1I TOTAL       ACCESS:   36209127  HIT:   27891288  MISS:    8317839  iACCESS:   36209127  iHIT:   27891288  iMISS:    8317839  dACCESS:          0  dHIT:          0  dMISS:          0  itACCESS:          0  itHIT:          0  itMISS:          0  dtACCESS:          0  dtHIT:          0  dtMISS:          0
cpu0_L1I LOAD         ACCESS:   10575740  HIT:    8290319  MISS:    2285421  iACCESS:   10575740  iHIT:    8290319  iMISS:    2285421  dACCESS:          0  dHIT:          0  dMISS:          0  itACCESS:          0  itHIT:          0  itMISS:          0  dtACCESS:          0  dtHIT:          0  dtMISS:          0
cpu0_L1I RFO          ACCESS:          0  HIT:          0  MISS:          0  iACCESS:          0  iHIT:          0  iMISS:          0  dACCESS:          0  dHIT:          0  dMISS:          0  itACCESS:          0  itHIT:          0  itMISS:          0  dtACCESS:          0  dtHIT:          0  dtMISS:          0
cpu0_L1I PREFETCH     ACCESS:   25633387  HIT:   19600969  MISS:    6032418  iACCESS:   25633387  iHIT:   19600969  iMISS:    6032418  dACCESS:          0  dHIT:          0  dMISS:          0  itACCESS:          0  itHIT:          0  itMISS:          0  dtACCESS:          0  dtHIT:          0  dtMISS:          0
cpu0_L1I WRITE        ACCESS:          0  HIT:          0  MISS:          0  iACCESS:          0  iHIT:          0  iMISS:          0  dACCESS:          0  dHIT:          0  dMISS:          0  itACCESS:          0  itHIT:          0  itMISS:          0  dtACCESS:          0  dtHIT:          0  dtMISS:          0
cpu0_L1I TRANSLATION  ACCESS:          0  HIT:          0  MISS:          0  iACCESS:          0  iHIT:          0  iMISS:          0  dACCESS:          0  dHIT:          0  dMISS:          0  itACCESS:          0  itHIT:          0  itMISS:          0  dtACCESS:          0  dtHIT:          0  dtMISS:          0
cpu0_L1I PREFETCH  REQUESTED:   28086182  ISSUED:   28085035  CROSSED:          0  USEFUL:    2025189  USELESS:     660166
cpu0_L1I AVERAGE iMISS LATENCY: 19.1526 cycles
cpu0_L1I AVERAGE dMISS LATENCY: 0 cycles
cpu0_L1I AVERAGE itMISS LATENCY: 0 cycles
cpu0_L1I AVERAGE dtMISS LATENCY: 0 cycles
cpu0_L1I PAGE CROSSINGS (TLB HIT):         0 
cpu0_L1I PAGE CROSSINGS (TLB MISS):         0 
cpu0_L1I AVERAGE MISS LATENCY: 19.1526 cycles
cpu0_ITLB TOTAL       ACCESS:   30344940  HIT:   28391742  MISS:    1953198  iACCESS:   30344940  iHIT:   28391742  iMISS:    1953198  dACCESS:          0  dHIT:          0  dMISS:          0  itACCESS:          0  itHIT:          0  itMISS:          0  dtACCESS:          0  dtHIT:          0  dtMISS:          0
cpu0_ITLB LOAD         ACCESS:   30344940  HIT:   28391742  MISS:    1953198  iACCESS:   30344940  iHIT:   28391742  iMISS:    1953198  dACCESS:          0  dHIT:          0  dMISS:          0  itACCESS:          0  itHIT:          0  itMISS:          0  dtACCESS:          0  dtHIT:          0  dtMISS:          0
cpu0_ITLB RFO          ACCESS:          0  HIT:          0  MISS:          0  iACCESS:          0  iHIT:          0  iMISS:          0  dACCESS:          0  dHIT:          0  dMISS:          0  itACCESS:          0  itHIT:          0  itMISS:          0  dtACCESS:          0  dtHIT:          0  dtMISS:          0
cpu0_ITLB PREFETCH     ACCESS:          0  HIT:          0  MISS:          0  iACCESS:          0  iHIT:          0  iMISS:          0  dACCESS:          0  dHIT:          0  dMISS:          0  itACCESS:          0  itHIT:          0  itMISS:          0  dtACCESS:          0  dtHIT:          0  dtMISS:          0
cpu0_ITLB WRITE        ACCESS:          0  HIT:          0  MISS:          0  iACCESS:          0  iHIT:          0  iMISS:          0  dACCESS:          0  dHIT:          0  dMISS:          0  itACCESS:          0  itHIT:          0  itMISS:          0  dtACCESS:          0  dtHIT:          0  dtMISS:          0
cpu0_ITLB TRANSLATION  ACCESS:          0  HIT:          0  MISS:          0  iACCESS:          0  iHIT:          0  iMISS:          0  dACCESS:          0  dHIT:          0  dMISS:          0  itACCESS:          0  itHIT:          0  itMISS:          0  dtACCESS:          0  dtHIT:          0  dtMISS:          0
cpu0_ITLB PREFETCH  REQUESTED:          0  ISSUED:          0  CROSSED:          0  USEFUL:     331195  USELESS:      65834
cpu0_ITLB AVERAGE iMISS LATENCY: 5.51691 cycles
cpu0_ITLB AVERAGE dMISS LATENCY: 0 cycles
cpu0_ITLB AVERAGE itMISS LATENCY: 0 cycles
cpu0_ITLB AVERAGE dtMISS LATENCY: 0 cycles
cpu0_ITLB PAGE CROSSINGS (TLB HIT):         0 
cpu0_ITLB PAGE CROSSINGS (TLB MISS):         0 
cpu0_ITLB AVERAGE MISS LATENCY: 5.51691 cycles
cpu0_DTLB TOTAL       ACCESS:   27970233  HIT:   26226707  MISS:    1743526  iACCESS:          0  iHIT:          0  iMISS:          0  dACCESS:   27970233  dHIT:   26226707  dMISS:    1743526  itACCESS:          0  itHIT:          0  itMISS:          0  dtACCESS:          0  dtHIT:          0  dtMISS:          0
cpu0_DTLB LOAD         ACCESS:   27970233  HIT:   26226707  MISS:    1743526  iACCESS:          0  iHIT:          0  iMISS:          0  dACCESS:   27970233  dHIT:   26226707  dMISS:    1743526  itACCESS:          0  itHIT:          0  itMISS:          0  dtACCESS:          0  dtHIT:          0  dtMISS:          0
cpu0_DTLB RFO          ACCESS:          0  HIT:          0  MISS:          0  iACCESS:          0  iHIT:          0  iMISS:          0  dACCESS:          0  dHIT:          0  dMISS:          0  itACCESS:          0  itHIT:          0  itMISS:          0  dtACCESS:          0  dtHIT:          0  dtMISS:          0
cpu0_DTLB PREFETCH     ACCESS:          0  HIT:          0  MISS:          0  iACCESS:          0  iHIT:          0  iMISS:          0  dACCESS:          0  dHIT:          0  dMISS:          0  itACCESS:          0  itHIT:          0  itMISS:          0  dtACCESS:          0  dtHIT:          0  dtMISS:          0
cpu0_DTLB WRITE        ACCESS:          0  HIT:          0  MISS:          0  iACCESS:          0  iHIT:          0  iMISS:          0  dACCESS:          0  dHIT:          0  dMISS:          0  itACCESS:          0  itHIT:          0  itMISS:          0  dtACCESS:          0  dtHIT:          0  dtMISS:          0
cpu0_DTLB TRANSLATION  ACCESS:          0  HIT:          0  MISS:          0  iACCESS:          0  iHIT:          0  iMISS:          0  dACCESS:          0  dHIT:          0  dMISS:          0  itACCESS:          0  itHIT:          0  itMISS:          0  dtACCESS:          0  dtHIT:          0  dtMISS:          0
cpu0_DTLB PREFETCH  REQUESTED:          0  ISSUED:          0  CROSSED:          0  USEFUL:          0  USELESS:          0
cpu0_DTLB AVERAGE iMISS LATENCY: 0 cycles
cpu0_DTLB AVERAGE dMISS LATENCY: 16.0286 cycles
cpu0_DTLB AVERAGE itMISS LATENCY: 0 cycles
cpu0_DTLB AVERAGE dtMISS LATENCY: 0 cycles
cpu0_DTLB PAGE CROSSINGS (TLB HIT):         0 
cpu0_DTLB PAGE CROSSINGS (TLB MISS):         0 
cpu0_DTLB AVERAGE MISS LATENCY: 16.0286 cycles
cpu0_STLB TOTAL       ACCESS:    1500759  HIT:    1274253  MISS:     226506  iACCESS:     397048  iHIT:     310225  iMISS:      86823  dACCESS:    1103711  dHIT:     964028  dMISS:     139683  itACCESS:          0  itHIT:          0  itMISS:          0  dtACCESS:          0  dtHIT:          0  dtMISS:          0
cpu0_STLB LOAD         ACCESS:    1500759  HIT:    1274253  MISS:     226506  iACCESS:     397048  iHIT:     310225  iMISS:      86823  dACCESS:    1103711  dHIT:     964028  dMISS:     139683  itACCESS:          0  itHIT:          0  itMISS:          0  dtACCESS:          0  dtHIT:          0  dtMISS:          0
cpu0_STLB RFO          ACCESS:          0  HIT:          0  MISS:          0  iACCESS:          0  iHIT:          0  iMISS:          0  dACCESS:          0  dHIT:          0  dMISS:          0  itACCESS:          0  itHIT:          0  itMISS:          0  dtACCESS:          0  dtHIT:          0  dtMISS:          0
cpu0_STLB PREFETCH     ACCESS:          0  HIT:          0  MISS:          0  iACCESS:          0  iHIT:          0  iMISS:          0  dACCESS:          0  dHIT:          0  dMISS:          0  itACCESS:          0  itHIT:          0  itMISS:          0  dtACCESS:          0  dtHIT:          0  dtMISS:          0
cpu0_STLB WRITE        ACCESS:          0  HIT:          0  MISS:          0  iACCESS:          0  iHIT:          0  iMISS:          0  dACCESS:          0  dHIT:          0  dMISS:          0  itACCESS:          0  itHIT:          0  itMISS:          0  dtACCESS:          0  dtHIT:          0  dtMISS:          0
cpu0_STLB TRANSLATION  ACCESS:          0  HIT:          0  MISS:          0  iACCESS:          0  iHIT:          0  iMISS:          0  dACCESS:          0  dHIT:          0  dMISS:          0  itACCESS:          0  itHIT:          0  itMISS:          0  dtACCESS:          0  dtHIT:          0  dtMISS:          0
cpu0_STLB PREFETCH  REQUESTED:          0  ISSUED:          0  CROSSED:          0  USEFUL:          0  USELESS:          0
cpu0_STLB AVERAGE iMISS LATENCY: 33.6049 cycles
cpu0_STLB AVERAGE dMISS LATENCY: 84.3745 cycles
cpu0_STLB AVERAGE itMISS LATENCY: 0 cycles
cpu0_STLB AVERAGE dtMISS LATENCY: 0 cycles
cpu0_STLB PAGE CROSSINGS (TLB HIT):         0 
cpu0_STLB PAGE CROSSINGS (TLB MISS):         0 
cpu0_STLB AVERAGE MISS LATENCY: 117.98 cycles
cpu0_L1D TOTAL       ACCESS:   42869024  HIT:   38525017  MISS:    4344007  iACCESS:          0  iHIT:          0  iMISS:          0  dACCESS:   42578390  dHIT:   38501228  dMISS:    4077162  itACCESS:      92711  itHIT:      12828  itMISS:      79883  dtACCESS:     197923  dtHIT:      10961  dtMISS:     186962
cpu0_L1D LOAD         ACCESS:   19517770  HIT:   17661143  MISS:    1856627  iACCESS:          0  iHIT:          0  iMISS:          0  dACCESS:   19517770  dHIT:   17661143  dMISS:    1856627  itACCESS:          0  itHIT:          0  itMISS:          0  dtACCESS:          0  dtHIT:          0  dtMISS:          0
cpu0_L1D RFO          ACCESS:          0  HIT:          0  MISS:          0  iACCESS:          0  iHIT:          0  iMISS:          0  dACCESS:          0  dHIT:          0  dMISS:          0  itACCESS:          0  itHIT:          0  itMISS:          0  dtACCESS:          0  dtHIT:          0  dtMISS:          0
cpu0_L1D PREFETCH     ACCESS:   12905989  HIT:   11150389  MISS:    1755600  iACCESS:          0  iHIT:          0  iMISS:          0  dACCESS:   12905989  dHIT:   11150389  dMISS:    1755600  itACCESS:          0  itHIT:          0  itMISS:          0  dtACCESS:          0  dtHIT:          0  dtMISS:          0
cpu0_L1D WRITE        ACCESS:   10154631  HIT:    9689696  MISS:     464935  iACCESS:          0  iHIT:          0  iMISS:          0  dACCESS:   10154631  dHIT:    9689696  dMISS:     464935  itACCESS:          0  itHIT:          0  itMISS:          0  dtACCESS:          0  dtHIT:          0  dtMISS:          0
cpu0_L1D TRANSLATION  ACCESS:     290634  HIT:      23789  MISS:     266845  iACCESS:          0  iHIT:          0  iMISS:          0  dACCESS:          0  dHIT:          0  dMISS:          0  itACCESS:      92711  itHIT:      12828  itMISS:      79883  dtACCESS:     197923  dtHIT:      10961  dtMISS:     186962
cpu0_L1D PREFETCH  REQUESTED:   19517770  ISSUED:   17256332  CROSSED:          0  USEFUL:     311836  USELESS:     707591
cpu0_L1D AVERAGE iMISS LATENCY: 0 cycles
cpu0_L1D AVERAGE dMISS LATENCY: 39.1831 cycles
cpu0_L1D AVERAGE itMISS LATENCY: 1.58074 cycles
cpu0_L1D AVERAGE dtMISS LATENCY: 3.96298 cycles
cpu0_L1D PAGE CROSSINGS (TLB HIT):         0 
cpu0_L1D PAGE CROSSINGS (TLB MISS):         0 
cpu0_L1D AVERAGE MISS LATENCY: 44.7268 cycles
cpu0_L2C TOTAL       ACCESS:    7368100  HIT:    2264970  MISS:    5103130  iACCESS:    3428249  iHIT:    1247145  iMISS:    2181104  dACCESS:    3683804  dHIT:     896952  dMISS:    2786852  itACCESS:      79883  itHIT:      39400  itMISS:      40483  dtACCESS:     176164  dtHIT:      81473  dtMISS:      94691
cpu0_L2C LOAD         ACCESS:    1737421  HIT:     449662  MISS:    1287759  iACCESS:     781006  iHIT:     259149  iMISS:     521857  dACCESS:     956415  dHIT:     190513  dMISS:     765902  itACCESS:          0  itHIT:          0  itMISS:          0  dtACCESS:          0  dtHIT:          0  dtMISS:          0
cpu0_L2C RFO          ACCESS:     162349  HIT:      31020  MISS:     131329  iACCESS:          0  iHIT:          0  iMISS:          0  dACCESS:     162349  dHIT:      31020  dMISS:     131329  itACCESS:          0  itHIT:          0  itMISS:          0  dtACCESS:          0  dtHIT:          0  dtMISS:          0
cpu0_L2C PREFETCH     ACCESS:    4936556  HIT:    1515786  MISS:    3420770  iACCESS:    2647243  iHIT:     987996  iMISS:    1659247  dACCESS:    2289313  dHIT:     527790  dMISS:    1761523  itACCESS:          0  itHIT:          0  itMISS:          0  dtACCESS:          0  dtHIT:          0  dtMISS:          0
cpu0_L2C WRITE        ACCESS:     275727  HIT:     147629  MISS:     128098  iACCESS:          0  iHIT:          0  iMISS:          0  dACCESS:     275727  dHIT:     147629  dMISS:     128098  itACCESS:          0  itHIT:          0  itMISS:          0  dtACCESS:          0  dtHIT:          0  dtMISS:          0
cpu0_L2C TRANSLATION  ACCESS:     256047  HIT:     120873  MISS:     135174  iACCESS:          0  iHIT:          0  iMISS:          0  dACCESS:          0  dHIT:          0  dMISS:          0  itACCESS:      79883  itHIT:      39400  itMISS:      40483  dtACCESS:     176164  dtHIT:      81473  dtMISS:      94691
cpu0_L2C PREFETCH  REQUESTED:    1542205  ISSUED:    1542120  CROSSED:          0  USEFUL:     421130  USELESS:     385909
cpu0_L2C AVERAGE iMISS LATENCY: 25.2523 cycles
cpu0_L2C AVERAGE dMISS LATENCY: 42.4139 cycles
cpu0_L2C AVERAGE itMISS LATENCY: 1.19635 cycles
cpu0_L2C AVERAGE dtMISS LATENCY: 3.04279 cycles
cpu0_L2C PAGE CROSSINGS (TLB HIT):         0 
cpu0_L2C PAGE CROSSINGS (TLB MISS):         0 
cpu0_L2C AVERAGE MISS LATENCY: 71.9053 cycles
LLC TOTAL       ACCESS:    4996422  HIT:    3274205  MISS:    1722217  iACCESS:    2100719  iHIT:    1501644  iMISS:     599075  dACCESS:    2760529  dHIT:    1740959  dMISS:    1019570  itACCESS:      40483  itHIT:      10183  itMISS:      30300  dtACCESS:      94691  dtHIT:      21419  dtMISS:      73272
LLC LOAD         ACCESS:    1281722  HIT:     901030  MISS:     380692  iACCESS:     520627  iHIT:     396678  iMISS:     123949  dACCESS:     761095  dHIT:     504352  dMISS:     256743  itACCESS:          0  itHIT:          0  itMISS:          0  dtACCESS:          0  dtHIT:          0  dtMISS:          0
LLC RFO          ACCESS:     131322  HIT:      72960  MISS:      58362  iACCESS:          0  iHIT:          0  iMISS:          0  dACCESS:     131322  dHIT:      72960  dMISS:      58362  itACCESS:          0  itHIT:          0  itMISS:          0  dtACCESS:          0  dtHIT:          0  dtMISS:          0
LLC PREFETCH     ACCESS:    3237537  HIT:    2061094  MISS:    1176443  iACCESS:    1580092  iHIT:    1104966  iMISS:     475126  dACCESS:    1657445  dHIT:     956128  dMISS:     701317  itACCESS:          0  itHIT:          0  itMISS:          0  dtACCESS:          0  dtHIT:          0  dtMISS:          0
LLC WRITE        ACCESS:     210667  HIT:     207519  MISS:       3148  iACCESS:          0  iHIT:          0  iMISS:          0  dACCESS:     210667  dHIT:     207519  dMISS:       3148  itACCESS:          0  itHIT:          0  itMISS:          0  dtACCESS:          0  dtHIT:          0  dtMISS:          0
LLC TRANSLATION  ACCESS:     135174  HIT:      31602  MISS:     103572  iACCESS:          0  iHIT:          0  iMISS:          0  dACCESS:          0  dHIT:          0  dMISS:          0  itACCESS:      40483  itHIT:      10183  itMISS:      30300  dtACCESS:      94691  dtHIT:      21419  dtMISS:      73272
LLC PREFETCH  REQUESTED:          0  ISSUED:          0  CROSSED:          0  USEFUL:          0  USELESS:          0
LLC AVERAGE iMISS LATENCY: 51.1598 cycles
LLC AVERAGE dMISS LATENCY: 97.9879 cycles
LLC AVERAGE itMISS LATENCY: 3.08217 cycles
LLC AVERAGE dtMISS LATENCY: 7.93383 cycles
LLC PAGE CROSSINGS (TLB HIT):         0 
LLC PAGE CROSSINGS (TLB MISS):         0 
LLC AVERAGE MISS LATENCY: 160.164 cycles

PageTableWalker TOTAL       ACCESS:     113330  
PageTableWalker AVERAGE LATENCY: 3.82739 cycles
PageTableWalker TOTAL LATENCY: 433758 cycles

DRAM Statistics
Channel 0
 RQ ROW_BUFFER_HIT:     495953
  ROW_BUFFER_MISS:    1205911
 AVG DBUS CONGESTED CYCLE:    3.64529
 WQ ROW_BUFFER_HIT:      38759
  ROW_BUFFER_MISS:      33576  FULL:          0

