last_page:0x200000000000000
VMEM_RES_CAP:0x100000
PAGE_SIZE:4096
LOG2_PAGE_SIZE:12
LOG2_PAGE_TABLE_SIZE:9
page_table_levels:5
WARNING: physical memory size is smaller than virtual memory size
FDiP enabled with aggresivity 16

*** ChampSim Multicore Out-of-Order Simulator ***

Warmup Instructions: 50000000
Simulation Instructions: 100000000
Number of CPUs: 1
Small page size: 4096
Large page size: 2097152

CPU 0 Bimodal branch predictor
Basic BTB sets: 1024 ways: 8 indirect buffer size: 4096 RAS size: 64
Instruction page size distrubution: 0
Loading instruction page size distribution from /home/bsc/bsc018186/scratch/itp_asplos25_AE/dump/srv495_ap.pdst
Data page size distrubution: 0
Loading data page size distribution from /home/bsc/bsc018186/scratch/itp_asplos25_AE/dump/srv495_ap.pdst
cpu0_L2C IP-based stride prefetcher
cpu0_L2C is using xPTP/LRU
	TLB_LOWER_STRESS_THRESHOLD:1
	TLB_UPPER_STRESS_THRESHOLD:9
	MIN_EVICTION_POSITION:4
cpu0_L1D next line prefetcher
cpu0_STLB using iTP with max lru@8
cpu0_STLB using iTP with instr@0 and data@2
Init sat counter with 3 bits (max:50).
cpu0_L1I next line prefetcher
Off-chip DRAM Size: 4 GiB Channels: 1 Width: 64-bit Data Rate: 3200 MT/s
Heartbeat CPU 0 instructions: 10000003 cycles: 2500221 heartbeat IPC: 3.99965 cumulative IPC: 3.99965 (Simulation time: 0 hr 0 min 44 sec) 
Heartbeat CPU 0 instructions: 20000000 cycles: 5000221 heartbeat IPC: 4 cumulative IPC: 3.99983 (Simulation time: 0 hr 1 min 31 sec) 
Heartbeat CPU 0 instructions: 30000000 cycles: 7500300 heartbeat IPC: 3.99988 cumulative IPC: 3.99985 (Simulation time: 0 hr 2 min 14 sec) 
Heartbeat CPU 0 instructions: 40000000 cycles: 10000316 heartbeat IPC: 3.99998 cumulative IPC: 3.99988 (Simulation time: 0 hr 3 min 0 sec) 
Heartbeat CPU 0 instructions: 50000003 cycles: 12500337 heartbeat IPC: 3.99997 cumulative IPC: 3.9999 (Simulation time: 0 hr 3 min 48 sec) 
Warmup finished CPU 0 instructions: 50000003 cycles: 12500338 cumulative IPC: 3.9999 (Simulation time: 0 hr 3 min 48 sec) 

Warmup complete CPU 0 instructions: 50000003 cycles: 12500338 (Simulation time: 0 hr 3 min 48 sec) 

Heartbeat CPU 0 instructions: 60000001 cycles: 29545583 heartbeat IPC: 0.586674 cumulative IPC: 0.586674 (Simulation time: 0 hr 5 min 6 sec) 
Heartbeat CPU 0 instructions: 70000000 cycles: 47000310 heartbeat IPC: 0.572911 cumulative IPC: 0.579711 (Simulation time: 0 hr 6 min 22 sec) 
Heartbeat CPU 0 instructions: 80000001 cycles: 63921990 heartbeat IPC: 0.590958 cumulative IPC: 0.583412 (Simulation time: 0 hr 7 min 39 sec) 
Heartbeat CPU 0 instructions: 90000000 cycles: 80487988 heartbeat IPC: 0.603647 cumulative IPC: 0.588343 (Simulation time: 0 hr 8 min 57 sec) 
Heartbeat CPU 0 instructions: 100000004 cycles: 97365377 heartbeat IPC: 0.592509 cumulative IPC: 0.589171 (Simulation time: 0 hr 10 min 15 sec) 
*** Reached end of trace: /gpfs/projects/bsc18/MN4/bsc18/romol/ChampSim/traces/qualcomm_srv/srv495_ap.champsimtrace.xz
Heartbeat CPU 0 instructions: 110000004 cycles: 114269411 heartbeat IPC: 0.591575 cumulative IPC: 0.589571 (Simulation time: 0 hr 11 min 29 sec) 
Heartbeat CPU 0 instructions: 120000004 cycles: 131825786 heartbeat IPC: 0.569594 cumulative IPC: 0.586631 (Simulation time: 0 hr 12 min 48 sec) 
Heartbeat CPU 0 instructions: 130000001 cycles: 149119501 heartbeat IPC: 0.578245 cumulative IPC: 0.58557 (Simulation time: 0 hr 14 min 5 sec) 
Heartbeat CPU 0 instructions: 140000002 cycles: 166451555 heartbeat IPC: 0.576966 cumulative IPC: 0.584601 (Simulation time: 0 hr 15 min 16 sec) 
Heartbeat CPU 0 instructions: 150000002 cycles: 184293866 heartbeat IPC: 0.560466 cumulative IPC: 0.582095 (Simulation time: 0 hr 16 min 31 sec) 
Simulation finished CPU 0 instructions: 100000000 cycles: 171793536 cumulative IPC: 0.582095 (Simulation time: 0 hr 16 min 31 sec) 

Simulation complete CPU 0 instructions: 100000000 cycles: 171793536 (Simulation time: 0 hr 16 min 31 sec) 


ChampSim completed all CPUs

Saving instructions large page distribution to /home/bsc/bsc018186/scratch/itp_asplos25_AE/dump/srv495_ap.pdst...
Saving data large page distribution to /home/bsc/bsc018186/scratch/itp_asplos25_AE/dump/srv495_ap.pdst...
=== Simulation ===
CPU 0 runs /gpfs/projects/bsc18/MN4/bsc18/romol/ChampSim/traces/qualcomm_srv/srv495_ap.champsimtrace.xz

Region of Interest Statistics

CPU 0 cumulative IPC: 0.582095 instructions: 100000000 cycles: 171793536
CPU 0 Branch Prediction Accuracy: 80.2549% MPKI: 35.6076 Average ROB Occupancy at Mispredict: 10.5891
Branch type MPKI
BRANCH_DIRECT_JUMP: 1.32006
BRANCH_INDIRECT: 17.7862
BRANCH_CONDITIONAL: 11.5962
BRANCH_DIRECT_CALL: 2.47778
BRANCH_INDIRECT_CALL: 0.692951
BRANCH_RETURN: 1.73448

Instructions large pages: 0
Instructions small pages: 1075
Large page distribution for instructions: 0%

Data large pages: 0
Data small pages: 4728
Large page distribution for data: 0%

cpu0_L1I TOTAL       ACCESS:   35512160  HIT:   27458405  MISS:    8053755  iACCESS:   35512160  iHIT:   27458405  iMISS:    8053755  dACCESS:          0  dHIT:          0  dMISS:          0  itACCESS:          0  itHIT:          0  itMISS:          0  dtACCESS:          0  dtHIT:          0  dtMISS:          0
cpu0_L1I LOAD         ACCESS:   10233594  HIT:    8027585  MISS:    2206009  iACCESS:   10233594  iHIT:    8027585  iMISS:    2206009  dACCESS:          0  dHIT:          0  dMISS:          0  itACCESS:          0  itHIT:          0  itMISS:          0  dtACCESS:          0  dtHIT:          0  dtMISS:          0
cpu0_L1I RFO          ACCESS:          0  HIT:          0  MISS:          0  iACCESS:          0  iHIT:          0  iMISS:          0  dACCESS:          0  dHIT:          0  dMISS:          0  itACCESS:          0  itHIT:          0  itMISS:          0  dtACCESS:          0  dtHIT:          0  dtMISS:          0
cpu0_L1I PREFETCH     ACCESS:   25278566  HIT:   19430820  MISS:    5847746  iACCESS:   25278566  iHIT:   19430820  iMISS:    5847746  dACCESS:          0  dHIT:          0  dMISS:          0  itACCESS:          0  itHIT:          0  itMISS:          0  dtACCESS:          0  dtHIT:          0  dtMISS:          0
cpu0_L1I WRITE        ACCESS:          0  HIT:          0  MISS:          0  iACCESS:          0  iHIT:          0  iMISS:          0  dACCESS:          0  dHIT:          0  dMISS:          0  itACCESS:          0  itHIT:          0  itMISS:          0  dtACCESS:          0  dtHIT:          0  dtMISS:          0
cpu0_L1I TRANSLATION  ACCESS:          0  HIT:          0  MISS:          0  iACCESS:          0  iHIT:          0  iMISS:          0  dACCESS:          0  dHIT:          0  dMISS:          0  itACCESS:          0  itHIT:          0  itMISS:          0  dtACCESS:          0  dtHIT:          0  dtMISS:          0
cpu0_L1I PREFETCH  REQUESTED:   27569094  ISSUED:   27568637  CROSSED:          0  USEFUL:    1976090  USELESS:     652559
cpu0_L1I AVERAGE iMISS LATENCY: 16.3348 cycles
cpu0_L1I AVERAGE dMISS LATENCY: 0 cycles
cpu0_L1I AVERAGE itMISS LATENCY: 0 cycles
cpu0_L1I AVERAGE dtMISS LATENCY: 0 cycles
cpu0_L1I PAGE CROSSINGS (TLB HIT):         0 
cpu0_L1I PAGE CROSSINGS (TLB MISS):         0 
cpu0_L1I AVERAGE MISS LATENCY: 16.3348 cycles
cpu0_ITLB TOTAL       ACCESS:   29857900  HIT:   27922522  MISS:    1935378  iACCESS:   29857900  iHIT:   27922522  iMISS:    1935378  dACCESS:          0  dHIT:          0  dMISS:          0  itACCESS:          0  itHIT:          0  itMISS:          0  dtACCESS:          0  dtHIT:          0  dtMISS:          0
cpu0_ITLB LOAD         ACCESS:   29857900  HIT:   27922522  MISS:    1935378  iACCESS:   29857900  iHIT:   27922522  iMISS:    1935378  dACCESS:          0  dHIT:          0  dMISS:          0  itACCESS:          0  itHIT:          0  itMISS:          0  dtACCESS:          0  dtHIT:          0  dtMISS:          0
cpu0_ITLB RFO          ACCESS:          0  HIT:          0  MISS:          0  iACCESS:          0  iHIT:          0  iMISS:          0  dACCESS:          0  dHIT:          0  dMISS:          0  itACCESS:          0  itHIT:          0  itMISS:          0  dtACCESS:          0  dtHIT:          0  dtMISS:          0
cpu0_ITLB PREFETCH     ACCESS:          0  HIT:          0  MISS:          0  iACCESS:          0  iHIT:          0  iMISS:          0  dACCESS:          0  dHIT:          0  dMISS:          0  itACCESS:          0  itHIT:          0  itMISS:          0  dtACCESS:          0  dtHIT:          0  dtMISS:          0
cpu0_ITLB WRITE        ACCESS:          0  HIT:          0  MISS:          0  iACCESS:          0  iHIT:          0  iMISS:          0  dACCESS:          0  dHIT:          0  dMISS:          0  itACCESS:          0  itHIT:          0  itMISS:          0  dtACCESS:          0  dtHIT:          0  dtMISS:          0
cpu0_ITLB TRANSLATION  ACCESS:          0  HIT:          0  MISS:          0  iACCESS:          0  iHIT:          0  iMISS:          0  dACCESS:          0  dHIT:          0  dMISS:          0  itACCESS:          0  itHIT:          0  itMISS:          0  dtACCESS:          0  dtHIT:          0  dtMISS:          0
cpu0_ITLB PREFETCH  REQUESTED:          0  ISSUED:          0  CROSSED:          0  USEFUL:     329945  USELESS:      61703
cpu0_ITLB AVERAGE iMISS LATENCY: 2.75749 cycles
cpu0_ITLB AVERAGE dMISS LATENCY: 0 cycles
cpu0_ITLB AVERAGE itMISS LATENCY: 0 cycles
cpu0_ITLB AVERAGE dtMISS LATENCY: 0 cycles
cpu0_ITLB PAGE CROSSINGS (TLB HIT):         0 
cpu0_ITLB PAGE CROSSINGS (TLB MISS):         0 
cpu0_ITLB AVERAGE MISS LATENCY: 2.75749 cycles
cpu0_DTLB TOTAL       ACCESS:   27990300  HIT:   26043078  MISS:    1947222  iACCESS:          0  iHIT:          0  iMISS:          0  dACCESS:   27990300  dHIT:   26043078  dMISS:    1947222  itACCESS:          0  itHIT:          0  itMISS:          0  dtACCESS:          0  dtHIT:          0  dtMISS:          0
cpu0_DTLB LOAD         ACCESS:   27990300  HIT:   26043078  MISS:    1947222  iACCESS:          0  iHIT:          0  iMISS:          0  dACCESS:   27990300  dHIT:   26043078  dMISS:    1947222  itACCESS:          0  itHIT:          0  itMISS:          0  dtACCESS:          0  dtHIT:          0  dtMISS:          0
cpu0_DTLB RFO          ACCESS:          0  HIT:          0  MISS:          0  iACCESS:          0  iHIT:          0  iMISS:          0  dACCESS:          0  dHIT:          0  dMISS:          0  itACCESS:          0  itHIT:          0  itMISS:          0  dtACCESS:          0  dtHIT:          0  dtMISS:          0
cpu0_DTLB PREFETCH     ACCESS:          0  HIT:          0  MISS:          0  iACCESS:          0  iHIT:          0  iMISS:          0  dACCESS:          0  dHIT:          0  dMISS:          0  itACCESS:          0  itHIT:          0  itMISS:          0  dtACCESS:          0  dtHIT:          0  dtMISS:          0
cpu0_DTLB WRITE        ACCESS:          0  HIT:          0  MISS:          0  iACCESS:          0  iHIT:          0  iMISS:          0  dACCESS:          0  dHIT:          0  dMISS:          0  itACCESS:          0  itHIT:          0  itMISS:          0  dtACCESS:          0  dtHIT:          0  dtMISS:          0
cpu0_DTLB TRANSLATION  ACCESS:          0  HIT:          0  MISS:          0  iACCESS:          0  iHIT:          0  iMISS:          0  dACCESS:          0  dHIT:          0  dMISS:          0  itACCESS:          0  itHIT:          0  itMISS:          0  dtACCESS:          0  dtHIT:          0  dtMISS:          0
cpu0_DTLB PREFETCH  REQUESTED:          0  ISSUED:          0  CROSSED:          0  USEFUL:          0  USELESS:          0
cpu0_DTLB AVERAGE iMISS LATENCY: 0 cycles
cpu0_DTLB AVERAGE dMISS LATENCY: 13.3615 cycles
cpu0_DTLB AVERAGE itMISS LATENCY: 0 cycles
cpu0_DTLB AVERAGE dtMISS LATENCY: 0 cycles
cpu0_DTLB PAGE CROSSINGS (TLB HIT):         0 
cpu0_DTLB PAGE CROSSINGS (TLB MISS):         0 
cpu0_DTLB AVERAGE MISS LATENCY: 13.3615 cycles
cpu0_STLB TOTAL       ACCESS:    1611169  HIT:    1399793  MISS:     211376  iACCESS:     391652  iHIT:     370659  iMISS:      20993  dACCESS:    1219517  dHIT:    1029134  dMISS:     190383  itACCESS:          0  itHIT:          0  itMISS:          0  dtACCESS:          0  dtHIT:          0  dtMISS:          0
cpu0_STLB LOAD         ACCESS:    1611169  HIT:    1399793  MISS:     211376  iACCESS:     391652  iHIT:     370659  iMISS:      20993  dACCESS:    1219517  dHIT:    1029134  dMISS:     190383  itACCESS:          0  itHIT:          0  itMISS:          0  dtACCESS:          0  dtHIT:          0  dtMISS:          0
cpu0_STLB RFO          ACCESS:          0  HIT:          0  MISS:          0  iACCESS:          0  iHIT:          0  iMISS:          0  dACCESS:          0  dHIT:          0  dMISS:          0  itACCESS:          0  itHIT:          0  itMISS:          0  dtACCESS:          0  dtHIT:          0  dtMISS:          0
cpu0_STLB PREFETCH     ACCESS:          0  HIT:          0  MISS:          0  iACCESS:          0  iHIT:          0  iMISS:          0  dACCESS:          0  dHIT:          0  dMISS:          0  itACCESS:          0  itHIT:          0  itMISS:          0  dtACCESS:          0  dtHIT:          0  dtMISS:          0
cpu0_STLB WRITE        ACCESS:          0  HIT:          0  MISS:          0  iACCESS:          0  iHIT:          0  iMISS:          0  dACCESS:          0  dHIT:          0  dMISS:          0  itACCESS:          0  itHIT:          0  itMISS:          0  dtACCESS:          0  dtHIT:          0  dtMISS:          0
cpu0_STLB TRANSLATION  ACCESS:          0  HIT:          0  MISS:          0  iACCESS:          0  iHIT:          0  iMISS:          0  dACCESS:          0  dHIT:          0  dMISS:          0  itACCESS:          0  itHIT:          0  itMISS:          0  dtACCESS:          0  dtHIT:          0  dtMISS:          0
cpu0_STLB PREFETCH  REQUESTED:          0  ISSUED:          0  CROSSED:          0  USEFUL:          0  USELESS:          0
cpu0_STLB AVERAGE iMISS LATENCY: 10.8068 cycles
cpu0_STLB AVERAGE dMISS LATENCY: 76.7813 cycles
cpu0_STLB AVERAGE itMISS LATENCY: 0 cycles
cpu0_STLB AVERAGE dtMISS LATENCY: 0 cycles
cpu0_STLB PAGE CROSSINGS (TLB HIT):         0 
cpu0_STLB PAGE CROSSINGS (TLB MISS):         0 
cpu0_STLB AVERAGE MISS LATENCY: 87.5881 cycles
cpu0_L1D TOTAL       ACCESS:   42397639  HIT:   38416870  MISS:    3980769  iACCESS:          0  iHIT:          0  iMISS:          0  dACCESS:   42115989  dHIT:   38399385  dMISS:    3716604  itACCESS:      24190  itHIT:       1776  itMISS:      22414  dtACCESS:     257460  dtHIT:      15709  dtMISS:     241751
cpu0_L1D LOAD         ACCESS:   19289018  HIT:   17608833  MISS:    1680185  iACCESS:          0  iHIT:          0  iMISS:          0  dACCESS:   19289018  dHIT:   17608833  dMISS:    1680185  itACCESS:          0  itHIT:          0  itMISS:          0  dtACCESS:          0  dtHIT:          0  dtMISS:          0
cpu0_L1D RFO          ACCESS:          0  HIT:          0  MISS:          0  iACCESS:          0  iHIT:          0  iMISS:          0  dACCESS:          0  dHIT:          0  dMISS:          0  itACCESS:          0  itHIT:          0  itMISS:          0  dtACCESS:          0  dtHIT:          0  dtMISS:          0
cpu0_L1D PREFETCH     ACCESS:   12662649  HIT:   11109135  MISS:    1553514  iACCESS:          0  iHIT:          0  iMISS:          0  dACCESS:   12662649  dHIT:   11109135  dMISS:    1553514  itACCESS:          0  itHIT:          0  itMISS:          0  dtACCESS:          0  dtHIT:          0  dtMISS:          0
cpu0_L1D WRITE        ACCESS:   10164322  HIT:    9681417  MISS:     482905  iACCESS:          0  iHIT:          0  iMISS:          0  dACCESS:   10164322  dHIT:    9681417  dMISS:     482905  itACCESS:          0  itHIT:          0  itMISS:          0  dtACCESS:          0  dtHIT:          0  dtMISS:          0
cpu0_L1D TRANSLATION  ACCESS:     281650  HIT:      17485  MISS:     264165  iACCESS:          0  iHIT:          0  iMISS:          0  dACCESS:          0  dHIT:          0  dMISS:          0  itACCESS:      24190  itHIT:       1776  itMISS:      22414  dtACCESS:     257460  dtHIT:      15709  dtMISS:     241751
cpu0_L1D PREFETCH  REQUESTED:   19289018  ISSUED:   17284678  CROSSED:          0  USEFUL:     313695  USELESS:     708007
cpu0_L1D AVERAGE iMISS LATENCY: 0 cycles
cpu0_L1D AVERAGE dMISS LATENCY: 36.1669 cycles
cpu0_L1D AVERAGE itMISS LATENCY: 0.520408 cycles
cpu0_L1D AVERAGE dtMISS LATENCY: 3.47742 cycles
cpu0_L1D PAGE CROSSINGS (TLB HIT):         0 
cpu0_L1D PAGE CROSSINGS (TLB MISS):         0 
cpu0_L1D AVERAGE MISS LATENCY: 40.1647 cycles
cpu0_L2C TOTAL       ACCESS:    7264871  HIT:    2484128  MISS:    4780743  iACCESS:    3352451  iHIT:    1371604  iMISS:    1980847  dACCESS:    3650364  dHIT:     942853  dMISS:    2707511  itACCESS:      22414  itHIT:       9544  itMISS:      12870  dtACCESS:     239642  dtHIT:     160127  dtMISS:      79515
cpu0_L2C LOAD         ACCESS:    1714372  HIT:     494103  MISS:    1220269  iACCESS:     762435  iHIT:     282863  iMISS:     479572  dACCESS:     951937  dHIT:     211240  dMISS:     740697  itACCESS:          0  itHIT:          0  itMISS:          0  dtACCESS:          0  dtHIT:          0  dtMISS:          0
cpu0_L2C RFO          ACCESS:     165106  HIT:      28143  MISS:     136963  iACCESS:          0  iHIT:          0  iMISS:          0  dACCESS:     165106  dHIT:      28143  dMISS:     136963  itACCESS:          0  itHIT:          0  itMISS:          0  dtACCESS:          0  dtHIT:          0  dtMISS:          0
cpu0_L2C PREFETCH     ACCESS:    4848071  HIT:    1675347  MISS:    3172724  iACCESS:    2590016  iHIT:    1088741  iMISS:    1501275  dACCESS:    2258055  dHIT:     586606  dMISS:    1671449  itACCESS:          0  itHIT:          0  itMISS:          0  dtACCESS:          0  dtHIT:          0  dtMISS:          0
cpu0_L2C WRITE        ACCESS:     275266  HIT:     116864  MISS:     158402  iACCESS:          0  iHIT:          0  iMISS:          0  dACCESS:     275266  dHIT:     116864  dMISS:     158402  itACCESS:          0  itHIT:          0  itMISS:          0  dtACCESS:          0  dtHIT:          0  dtMISS:          0
cpu0_L2C TRANSLATION  ACCESS:     262056  HIT:     169671  MISS:      92385  iACCESS:          0  iHIT:          0  iMISS:          0  dACCESS:          0  dHIT:          0  dMISS:          0  itACCESS:      22414  itHIT:       9544  itMISS:      12870  dtACCESS:     239642  dtHIT:     160127  dtMISS:      79515
cpu0_L2C PREFETCH  REQUESTED:    1493685  ISSUED:    1493615  CROSSED:          0  USEFUL:     372250  USELESS:     383741
cpu0_L2C AVERAGE iMISS LATENCY: 21.1543 cycles
cpu0_L2C AVERAGE dMISS LATENCY: 37.2445 cycles
cpu0_L2C AVERAGE itMISS LATENCY: 0.388274 cycles
cpu0_L2C AVERAGE dtMISS LATENCY: 2.42569 cycles
cpu0_L2C PAGE CROSSINGS (TLB HIT):         0 
cpu0_L2C PAGE CROSSINGS (TLB MISS):         0 
cpu0_L2C AVERAGE MISS LATENCY: 61.2127 cycles
LLC TOTAL       ACCESS:    4666165  HIT:    3363922  MISS:    1302243  iACCESS:    1910526  iHIT:    1473587  iMISS:     436939  dACCESS:    2663254  dHIT:    1862764  dMISS:     800490  itACCESS:      12870  itHIT:       3608  itMISS:       9262  dtACCESS:      79515  dtHIT:      23963  dtMISS:      55552
LLC LOAD         ACCESS:    1213918  HIT:     927759  MISS:     286159  iACCESS:     478281  iHIT:     388552  iMISS:      89729  dACCESS:     735637  dHIT:     539207  dMISS:     196430  itACCESS:          0  itHIT:          0  itMISS:          0  dtACCESS:          0  dtHIT:          0  dtMISS:          0
LLC RFO          ACCESS:     136963  HIT:      82058  MISS:      54905  iACCESS:          0  iHIT:          0  iMISS:          0  dACCESS:     136963  dHIT:      82058  dMISS:      54905  itACCESS:          0  itHIT:          0  itMISS:          0  dtACCESS:          0  dtHIT:          0  dtMISS:          0
LLC PREFETCH     ACCESS:    3016625  HIT:    2123310  MISS:     893315  iACCESS:    1432245  iHIT:    1085035  iMISS:     347210  dACCESS:    1584380  dHIT:    1038275  dMISS:     546105  itACCESS:          0  itHIT:          0  itMISS:          0  dtACCESS:          0  dtHIT:          0  dtMISS:          0
LLC WRITE        ACCESS:     206274  HIT:     203224  MISS:       3050  iACCESS:          0  iHIT:          0  iMISS:          0  dACCESS:     206274  dHIT:     203224  dMISS:       3050  itACCESS:          0  itHIT:          0  itMISS:          0  dtACCESS:          0  dtHIT:          0  dtMISS:          0
LLC TRANSLATION  ACCESS:      92385  HIT:      27571  MISS:      64814  iACCESS:          0  iHIT:          0  iMISS:          0  dACCESS:          0  dHIT:          0  dMISS:          0  itACCESS:      12870  itHIT:       3608  itMISS:       9262  dtACCESS:      79515  dtHIT:      23963  dtMISS:      55552
LLC PREFETCH  REQUESTED:          0  ISSUED:          0  CROSSED:          0  USEFUL:          0  USELESS:          0
LLC AVERAGE iMISS LATENCY: 49.2647 cycles
LLC AVERAGE dMISS LATENCY: 100.886 cycles
LLC AVERAGE itMISS LATENCY: 1.23108 cycles
LLC AVERAGE dtMISS LATENCY: 7.70454 cycles
LLC PAGE CROSSINGS (TLB HIT):         0 
LLC PAGE CROSSINGS (TLB MISS):         0 
LLC AVERAGE MISS LATENCY: 159.086 cycles

PageTableWalker TOTAL       ACCESS:     100274  
PageTableWalker AVERAGE LATENCY: 4.23529 cycles
PageTableWalker TOTAL LATENCY: 424689 cycles

DRAM Statistics
Channel 0
 RQ ROW_BUFFER_HIT:     361677
  ROW_BUFFER_MISS:     931577
 AVG DBUS CONGESTED CYCLE:    3.62678
 WQ ROW_BUFFER_HIT:      34289
  ROW_BUFFER_MISS:      32568  FULL:          0

