last_page:0x200000000000000
VMEM_RES_CAP:0x100000
PAGE_SIZE:4096
LOG2_PAGE_SIZE:12
LOG2_PAGE_TABLE_SIZE:9
page_table_levels:5
WARNING: physical memory size is smaller than virtual memory size
FDiP enabled with aggresivity 16

*** ChampSim Multicore Out-of-Order Simulator ***

Warmup Instructions: 50000000
Simulation Instructions: 100000000
Number of CPUs: 1
Small page size: 4096
Large page size: 2097152

CPU 0 Bimodal branch predictor
Basic BTB sets: 1024 ways: 8 indirect buffer size: 4096 RAS size: 64
Instruction page size distrubution: 0
Loading instruction page size distribution from /home/bsc/bsc018186/scratch/itp_asplos25_AE/dump/srv41_ap.pdst
Data page size distrubution: 0
Loading data page size distribution from /home/bsc/bsc018186/scratch/itp_asplos25_AE/dump/srv41_ap.pdst
cpu0_L2C IP-based stride prefetcher
cpu0_L2C is using xPTP/LRU
	TLB_LOWER_STRESS_THRESHOLD:1
	TLB_UPPER_STRESS_THRESHOLD:9
	MIN_EVICTION_POSITION:4
cpu0_L1D next line prefetcher
cpu0_STLB using iTP with max lru@8
cpu0_STLB using iTP with instr@0 and data@2
Init sat counter with 3 bits (max:50).
cpu0_L1I next line prefetcher
Off-chip DRAM Size: 4 GiB Channels: 1 Width: 64-bit Data Rate: 3200 MT/s
Heartbeat CPU 0 instructions: 10000002 cycles: 2500171 heartbeat IPC: 3.99973 cumulative IPC: 3.99973 (Simulation time: 0 hr 0 min 38 sec) 
Heartbeat CPU 0 instructions: 20000001 cycles: 5000226 heartbeat IPC: 3.99992 cumulative IPC: 3.99982 (Simulation time: 0 hr 1 min 19 sec) 
Heartbeat CPU 0 instructions: 30000002 cycles: 7500255 heartbeat IPC: 3.99996 cumulative IPC: 3.99987 (Simulation time: 0 hr 2 min 2 sec) 
Heartbeat CPU 0 instructions: 40000000 cycles: 10000255 heartbeat IPC: 4 cumulative IPC: 3.9999 (Simulation time: 0 hr 2 min 45 sec) 
Heartbeat CPU 0 instructions: 50000000 cycles: 12500273 heartbeat IPC: 3.99998 cumulative IPC: 3.99992 (Simulation time: 0 hr 3 min 27 sec) 
Warmup finished CPU 0 instructions: 50000000 cycles: 12500274 cumulative IPC: 3.99992 (Simulation time: 0 hr 3 min 27 sec) 

Warmup complete CPU 0 instructions: 50000000 cycles: 12500274 (Simulation time: 0 hr 3 min 27 sec) 

Heartbeat CPU 0 instructions: 60000004 cycles: 29782330 heartbeat IPC: 0.578636 cumulative IPC: 0.578636 (Simulation time: 0 hr 4 min 35 sec) 
Heartbeat CPU 0 instructions: 70000003 cycles: 46576579 heartbeat IPC: 0.595442 cumulative IPC: 0.586919 (Simulation time: 0 hr 5 min 43 sec) 
Heartbeat CPU 0 instructions: 80000000 cycles: 63941214 heartbeat IPC: 0.575883 cumulative IPC: 0.583194 (Simulation time: 0 hr 6 min 52 sec) 
Heartbeat CPU 0 instructions: 90000003 cycles: 82314839 heartbeat IPC: 0.544259 cumulative IPC: 0.572947 (Simulation time: 0 hr 8 min 3 sec) 
Heartbeat CPU 0 instructions: 100000004 cycles: 99163274 heartbeat IPC: 0.593527 cumulative IPC: 0.576948 (Simulation time: 0 hr 9 min 12 sec) 
*** Reached end of trace: /gpfs/projects/bsc18/MN4/bsc18/romol/ChampSim/traces/qualcomm_srv/srv41_ap.champsimtrace.xz
Heartbeat CPU 0 instructions: 110000003 cycles: 116723835 heartbeat IPC: 0.569458 cumulative IPC: 0.575686 (Simulation time: 0 hr 10 min 22 sec) 
Heartbeat CPU 0 instructions: 120000001 cycles: 134362521 heartbeat IPC: 0.566936 cumulative IPC: 0.57442 (Simulation time: 0 hr 11 min 33 sec) 
Heartbeat CPU 0 instructions: 130000002 cycles: 151199720 heartbeat IPC: 0.593924 cumulative IPC: 0.576787 (Simulation time: 0 hr 12 min 48 sec) 
Heartbeat CPU 0 instructions: 140000004 cycles: 168635494 heartbeat IPC: 0.573534 cumulative IPC: 0.576424 (Simulation time: 0 hr 14 min 4 sec) 
Heartbeat CPU 0 instructions: 150000002 cycles: 185608278 heartbeat IPC: 0.589179 cumulative IPC: 0.577675 (Simulation time: 0 hr 15 min 17 sec) 
Simulation finished CPU 0 instructions: 100000002 cycles: 173108005 cumulative IPC: 0.577675 (Simulation time: 0 hr 15 min 17 sec) 

Simulation complete CPU 0 instructions: 100000002 cycles: 173108005 (Simulation time: 0 hr 15 min 17 sec) 


ChampSim completed all CPUs

Saving instructions large page distribution to /home/bsc/bsc018186/scratch/itp_asplos25_AE/dump/srv41_ap.pdst...
Saving data large page distribution to /home/bsc/bsc018186/scratch/itp_asplos25_AE/dump/srv41_ap.pdst...
=== Simulation ===
CPU 0 runs /gpfs/projects/bsc18/MN4/bsc18/romol/ChampSim/traces/qualcomm_srv/srv41_ap.champsimtrace.xz

Region of Interest Statistics

CPU 0 cumulative IPC: 0.577675 instructions: 100000002 cycles: 173108005
CPU 0 Branch Prediction Accuracy: 80.3925% MPKI: 35.4392 Average ROB Occupancy at Mispredict: 10.5657
Branch type MPKI
BRANCH_DIRECT_JUMP: 1.31902
BRANCH_INDIRECT: 17.7313
BRANCH_CONDITIONAL: 11.5202
BRANCH_DIRECT_CALL: 2.49591
BRANCH_INDIRECT_CALL: 0.6704
BRANCH_RETURN: 1.70236

Instructions large pages: 0
Instructions small pages: 5905
Large page distribution for instructions: 0%

Data large pages: 0
Data small pages: 4859
Large page distribution for data: 0%

cpu0_L1I TOTAL       ACCESS:   36032036  HIT:   27917583  MISS:    8114453  iACCESS:   36032036  iHIT:   27917583  iMISS:    8114453  dACCESS:          0  dHIT:          0  dMISS:          0  itACCESS:          0  itHIT:          0  itMISS:          0  dtACCESS:          0  dtHIT:          0  dtMISS:          0
cpu0_L1I LOAD         ACCESS:   10505672  HIT:    8271725  MISS:    2233947  iACCESS:   10505672  iHIT:    8271725  iMISS:    2233947  dACCESS:          0  dHIT:          0  dMISS:          0  itACCESS:          0  itHIT:          0  itMISS:          0  dtACCESS:          0  dtHIT:          0  dtMISS:          0
cpu0_L1I RFO          ACCESS:          0  HIT:          0  MISS:          0  iACCESS:          0  iHIT:          0  iMISS:          0  dACCESS:          0  dHIT:          0  dMISS:          0  itACCESS:          0  itHIT:          0  itMISS:          0  dtACCESS:          0  dtHIT:          0  dtMISS:          0
cpu0_L1I PREFETCH     ACCESS:   25526364  HIT:   19645858  MISS:    5880506  iACCESS:   25526364  iHIT:   19645858  iMISS:    5880506  dACCESS:          0  dHIT:          0  dMISS:          0  itACCESS:          0  itHIT:          0  itMISS:          0  dtACCESS:          0  dtHIT:          0  dtMISS:          0
cpu0_L1I WRITE        ACCESS:          0  HIT:          0  MISS:          0  iACCESS:          0  iHIT:          0  iMISS:          0  dACCESS:          0  dHIT:          0  dMISS:          0  itACCESS:          0  itHIT:          0  itMISS:          0  dtACCESS:          0  dtHIT:          0  dtMISS:          0
cpu0_L1I TRANSLATION  ACCESS:          0  HIT:          0  MISS:          0  iACCESS:          0  iHIT:          0  iMISS:          0  dACCESS:          0  dHIT:          0  dMISS:          0  itACCESS:          0  itHIT:          0  itMISS:          0  dtACCESS:          0  dtHIT:          0  dtMISS:          0
cpu0_L1I PREFETCH  REQUESTED:   27971531  ISSUED:   27971008  CROSSED:          0  USEFUL:    1990845  USELESS:     652744
cpu0_L1I AVERAGE iMISS LATENCY: 16.1658 cycles
cpu0_L1I AVERAGE dMISS LATENCY: 0 cycles
cpu0_L1I AVERAGE itMISS LATENCY: 0 cycles
cpu0_L1I AVERAGE dtMISS LATENCY: 0 cycles
cpu0_L1I PAGE CROSSINGS (TLB HIT):         0 
cpu0_L1I PAGE CROSSINGS (TLB MISS):         0 
cpu0_L1I AVERAGE MISS LATENCY: 16.1658 cycles
cpu0_ITLB TOTAL       ACCESS:   30172351  HIT:   28236114  MISS:    1936237  iACCESS:   30172351  iHIT:   28236114  iMISS:    1936237  dACCESS:          0  dHIT:          0  dMISS:          0  itACCESS:          0  itHIT:          0  itMISS:          0  dtACCESS:          0  dtHIT:          0  dtMISS:          0
cpu0_ITLB LOAD         ACCESS:   30172351  HIT:   28236114  MISS:    1936237  iACCESS:   30172351  iHIT:   28236114  iMISS:    1936237  dACCESS:          0  dHIT:          0  dMISS:          0  itACCESS:          0  itHIT:          0  itMISS:          0  dtACCESS:          0  dtHIT:          0  dtMISS:          0
cpu0_ITLB RFO          ACCESS:          0  HIT:          0  MISS:          0  iACCESS:          0  iHIT:          0  iMISS:          0  dACCESS:          0  dHIT:          0  dMISS:          0  itACCESS:          0  itHIT:          0  itMISS:          0  dtACCESS:          0  dtHIT:          0  dtMISS:          0
cpu0_ITLB PREFETCH     ACCESS:          0  HIT:          0  MISS:          0  iACCESS:          0  iHIT:          0  iMISS:          0  dACCESS:          0  dHIT:          0  dMISS:          0  itACCESS:          0  itHIT:          0  itMISS:          0  dtACCESS:          0  dtHIT:          0  dtMISS:          0
cpu0_ITLB WRITE        ACCESS:          0  HIT:          0  MISS:          0  iACCESS:          0  iHIT:          0  iMISS:          0  dACCESS:          0  dHIT:          0  dMISS:          0  itACCESS:          0  itHIT:          0  itMISS:          0  dtACCESS:          0  dtHIT:          0  dtMISS:          0
cpu0_ITLB TRANSLATION  ACCESS:          0  HIT:          0  MISS:          0  iACCESS:          0  iHIT:          0  iMISS:          0  dACCESS:          0  dHIT:          0  dMISS:          0  itACCESS:          0  itHIT:          0  itMISS:          0  dtACCESS:          0  dtHIT:          0  dtMISS:          0
cpu0_ITLB PREFETCH  REQUESTED:          0  ISSUED:          0  CROSSED:          0  USEFUL:     327552  USELESS:      65593
cpu0_ITLB AVERAGE iMISS LATENCY: 3.47774 cycles
cpu0_ITLB AVERAGE dMISS LATENCY: 0 cycles
cpu0_ITLB AVERAGE itMISS LATENCY: 0 cycles
cpu0_ITLB AVERAGE dtMISS LATENCY: 0 cycles
cpu0_ITLB PAGE CROSSINGS (TLB HIT):         0 
cpu0_ITLB PAGE CROSSINGS (TLB MISS):         0 
cpu0_ITLB AVERAGE MISS LATENCY: 3.47774 cycles
cpu0_DTLB TOTAL       ACCESS:   27913787  HIT:   25940127  MISS:    1973660  iACCESS:          0  iHIT:          0  iMISS:          0  dACCESS:   27913787  dHIT:   25940127  dMISS:    1973660  itACCESS:          0  itHIT:          0  itMISS:          0  dtACCESS:          0  dtHIT:          0  dtMISS:          0
cpu0_DTLB LOAD         ACCESS:   27913787  HIT:   25940127  MISS:    1973660  iACCESS:          0  iHIT:          0  iMISS:          0  dACCESS:   27913787  dHIT:   25940127  dMISS:    1973660  itACCESS:          0  itHIT:          0  itMISS:          0  dtACCESS:          0  dtHIT:          0  dtMISS:          0
cpu0_DTLB RFO          ACCESS:          0  HIT:          0  MISS:          0  iACCESS:          0  iHIT:          0  iMISS:          0  dACCESS:          0  dHIT:          0  dMISS:          0  itACCESS:          0  itHIT:          0  itMISS:          0  dtACCESS:          0  dtHIT:          0  dtMISS:          0
cpu0_DTLB PREFETCH     ACCESS:          0  HIT:          0  MISS:          0  iACCESS:          0  iHIT:          0  iMISS:          0  dACCESS:          0  dHIT:          0  dMISS:          0  itACCESS:          0  itHIT:          0  itMISS:          0  dtACCESS:          0  dtHIT:          0  dtMISS:          0
cpu0_DTLB WRITE        ACCESS:          0  HIT:          0  MISS:          0  iACCESS:          0  iHIT:          0  iMISS:          0  dACCESS:          0  dHIT:          0  dMISS:          0  itACCESS:          0  itHIT:          0  itMISS:          0  dtACCESS:          0  dtHIT:          0  dtMISS:          0
cpu0_DTLB TRANSLATION  ACCESS:          0  HIT:          0  MISS:          0  iACCESS:          0  iHIT:          0  iMISS:          0  dACCESS:          0  dHIT:          0  dMISS:          0  itACCESS:          0  itHIT:          0  itMISS:          0  dtACCESS:          0  dtHIT:          0  dtMISS:          0
cpu0_DTLB PREFETCH  REQUESTED:          0  ISSUED:          0  CROSSED:          0  USEFUL:          0  USELESS:          0
cpu0_DTLB AVERAGE iMISS LATENCY: 0 cycles
cpu0_DTLB AVERAGE dMISS LATENCY: 13.7002 cycles
cpu0_DTLB AVERAGE itMISS LATENCY: 0 cycles
cpu0_DTLB AVERAGE dtMISS LATENCY: 0 cycles
cpu0_DTLB PAGE CROSSINGS (TLB HIT):         0 
cpu0_DTLB PAGE CROSSINGS (TLB MISS):         0 
cpu0_DTLB AVERAGE MISS LATENCY: 13.7002 cycles
cpu0_STLB TOTAL       ACCESS:    1626644  HIT:    1415172  MISS:     211472  iACCESS:     393148  iHIT:     364596  iMISS:      28552  dACCESS:    1233496  dHIT:    1050576  dMISS:     182920  itACCESS:          0  itHIT:          0  itMISS:          0  dtACCESS:          0  dtHIT:          0  dtMISS:          0
cpu0_STLB LOAD         ACCESS:    1626644  HIT:    1415172  MISS:     211472  iACCESS:     393148  iHIT:     364596  iMISS:      28552  dACCESS:    1233496  dHIT:    1050576  dMISS:     182920  itACCESS:          0  itHIT:          0  itMISS:          0  dtACCESS:          0  dtHIT:          0  dtMISS:          0
cpu0_STLB RFO          ACCESS:          0  HIT:          0  MISS:          0  iACCESS:          0  iHIT:          0  iMISS:          0  dACCESS:          0  dHIT:          0  dMISS:          0  itACCESS:          0  itHIT:          0  itMISS:          0  dtACCESS:          0  dtHIT:          0  dtMISS:          0
cpu0_STLB PREFETCH     ACCESS:          0  HIT:          0  MISS:          0  iACCESS:          0  iHIT:          0  iMISS:          0  dACCESS:          0  dHIT:          0  dMISS:          0  itACCESS:          0  itHIT:          0  itMISS:          0  dtACCESS:          0  dtHIT:          0  dtMISS:          0
cpu0_STLB WRITE        ACCESS:          0  HIT:          0  MISS:          0  iACCESS:          0  iHIT:          0  iMISS:          0  dACCESS:          0  dHIT:          0  dMISS:          0  itACCESS:          0  itHIT:          0  itMISS:          0  dtACCESS:          0  dtHIT:          0  dtMISS:          0
cpu0_STLB TRANSLATION  ACCESS:          0  HIT:          0  MISS:          0  iACCESS:          0  iHIT:          0  iMISS:          0  dACCESS:          0  dHIT:          0  dMISS:          0  itACCESS:          0  itHIT:          0  itMISS:          0  dtACCESS:          0  dtHIT:          0  dtMISS:          0
cpu0_STLB PREFETCH  REQUESTED:          0  ISSUED:          0  CROSSED:          0  USEFUL:          0  USELESS:          0
cpu0_STLB AVERAGE iMISS LATENCY: 17.3261 cycles
cpu0_STLB AVERAGE dMISS LATENCY: 81.1469 cycles
cpu0_STLB AVERAGE itMISS LATENCY: 0 cycles
cpu0_STLB AVERAGE dtMISS LATENCY: 0 cycles
cpu0_STLB PAGE CROSSINGS (TLB HIT):         0 
cpu0_STLB PAGE CROSSINGS (TLB MISS):         0 
cpu0_STLB AVERAGE MISS LATENCY: 98.473 cycles
cpu0_L1D TOTAL       ACCESS:   42768493  HIT:   38420426  MISS:    4348067  iACCESS:          0  iHIT:          0  iMISS:          0  dACCESS:   42482204  dHIT:   38403092  dMISS:    4079112  itACCESS:      32543  itHIT:       2801  itMISS:      29742  dtACCESS:     253746  dtHIT:      14533  dtMISS:     239213
cpu0_L1D LOAD         ACCESS:   19433644  HIT:   17569257  MISS:    1864387  iACCESS:          0  iHIT:          0  iMISS:          0  dACCESS:   19433644  dHIT:   17569257  dMISS:    1864387  itACCESS:          0  itHIT:          0  itMISS:          0  dtACCESS:          0  dtHIT:          0  dtMISS:          0
cpu0_L1D RFO          ACCESS:          0  HIT:          0  MISS:          0  iACCESS:          0  iHIT:          0  iMISS:          0  dACCESS:          0  dHIT:          0  dMISS:          0  itACCESS:          0  itHIT:          0  itMISS:          0  dtACCESS:          0  dtHIT:          0  dtMISS:          0
cpu0_L1D PREFETCH     ACCESS:   12904647  HIT:   11155868  MISS:    1748779  iACCESS:          0  iHIT:          0  iMISS:          0  dACCESS:   12904647  dHIT:   11155868  dMISS:    1748779  itACCESS:          0  itHIT:          0  itMISS:          0  dtACCESS:          0  dtHIT:          0  dtMISS:          0
cpu0_L1D WRITE        ACCESS:   10143913  HIT:    9677967  MISS:     465946  iACCESS:          0  iHIT:          0  iMISS:          0  dACCESS:   10143913  dHIT:    9677967  dMISS:     465946  itACCESS:          0  itHIT:          0  itMISS:          0  dtACCESS:          0  dtHIT:          0  dtMISS:          0
cpu0_L1D TRANSLATION  ACCESS:     286289  HIT:      17334  MISS:     268955  iACCESS:          0  iHIT:          0  iMISS:          0  dACCESS:          0  dHIT:          0  dMISS:          0  itACCESS:      32543  itHIT:       2801  itMISS:      29742  dtACCESS:     253746  dtHIT:      14533  dtMISS:     239213
cpu0_L1D PREFETCH  REQUESTED:   19433644  ISSUED:   17352857  CROSSED:          0  USEFUL:     311959  USELESS:     703609
cpu0_L1D AVERAGE iMISS LATENCY: 0 cycles
cpu0_L1D AVERAGE dMISS LATENCY: 33.7429 cycles
cpu0_L1D AVERAGE itMISS LATENCY: 0.777584 cycles
cpu0_L1D AVERAGE dtMISS LATENCY: 3.4067 cycles
cpu0_L1D PAGE CROSSINGS (TLB HIT):         0 
cpu0_L1D PAGE CROSSINGS (TLB MISS):         0 
cpu0_L1D AVERAGE MISS LATENCY: 37.9272 cycles
cpu0_L2C TOTAL       ACCESS:    7280904  HIT:    2500320  MISS:    4780584  iACCESS:    3379568  iHIT:    1412499  iMISS:    1967069  dACCESS:    3638875  dHIT:     930655  dMISS:    2708220  itACCESS:      29742  itHIT:       8655  itMISS:      21087  dtACCESS:     232719  dtHIT:     148511  dtMISS:      84208
cpu0_L2C LOAD         ACCESS:    1724417  HIT:     528889  MISS:    1195528  iACCESS:     772847  iHIT:     304693  iMISS:     468154  dACCESS:     951570  dHIT:     224196  dMISS:     727374  itACCESS:          0  itHIT:          0  itMISS:          0  dtACCESS:          0  dtHIT:          0  dtMISS:          0
cpu0_L2C RFO          ACCESS:     163135  HIT:      26883  MISS:     136252  iACCESS:          0  iHIT:          0  iMISS:          0  dACCESS:     163135  dHIT:      26883  dMISS:     136252  itACCESS:          0  itHIT:          0  itMISS:          0  dtACCESS:          0  dtHIT:          0  dtMISS:          0
cpu0_L2C PREFETCH     ACCESS:    4857638  HIT:    1675550  MISS:    3182088  iACCESS:    2606721  iHIT:    1107806  iMISS:    1498915  dACCESS:    2250917  dHIT:     567744  dMISS:    1683173  itACCESS:          0  itHIT:          0  itMISS:          0  dtACCESS:          0  dtHIT:          0  dtMISS:          0
cpu0_L2C WRITE        ACCESS:     273253  HIT:     111832  MISS:     161421  iACCESS:          0  iHIT:          0  iMISS:          0  dACCESS:     273253  dHIT:     111832  dMISS:     161421  itACCESS:          0  itHIT:          0  itMISS:          0  dtACCESS:          0  dtHIT:          0  dtMISS:          0
cpu0_L2C TRANSLATION  ACCESS:     262461  HIT:     157166  MISS:     105295  iACCESS:          0  iHIT:          0  iMISS:          0  dACCESS:          0  dHIT:          0  dMISS:          0  itACCESS:      29742  itHIT:       8655  itMISS:      21087  dtACCESS:     232719  dtHIT:     148511  dtMISS:      84208
cpu0_L2C PREFETCH  REQUESTED:    1501006  ISSUED:    1500805  CROSSED:          0  USEFUL:     390992  USELESS:     371673
cpu0_L2C AVERAGE iMISS LATENCY: 21.1677 cycles
cpu0_L2C AVERAGE dMISS LATENCY: 37.9146 cycles
cpu0_L2C AVERAGE itMISS LATENCY: 0.64663 cycles
cpu0_L2C AVERAGE dtMISS LATENCY: 2.64066 cycles
cpu0_L2C PAGE CROSSINGS (TLB HIT):         0 
cpu0_L2C PAGE CROSSINGS (TLB MISS):         0 
cpu0_L2C AVERAGE MISS LATENCY: 62.3696 cycles
LLC TOTAL       ACCESS:    4661982  HIT:    3341804  MISS:    1320178  iACCESS:    1899913  iHIT:    1461303  iMISS:     438610  dACCESS:    2656774  dHIT:    1850683  dMISS:     806091  itACCESS:      21087  itHIT:       5941  itMISS:      15146  dtACCESS:      84208  dtHIT:      23877  dtMISS:      60331
LLC LOAD         ACCESS:    1189478  HIT:     899948  MISS:     289530  iACCESS:     467109  iHIT:     377428  iMISS:      89681  dACCESS:     722369  dHIT:     522520  dMISS:     199849  itACCESS:          0  itHIT:          0  itMISS:          0  dtACCESS:          0  dtHIT:          0  dtMISS:          0
LLC RFO          ACCESS:     136213  HIT:      84942  MISS:      51271  iACCESS:          0  iHIT:          0  iMISS:          0  dACCESS:     136213  dHIT:      84942  dMISS:      51271  itACCESS:          0  itHIT:          0  itMISS:          0  dtACCESS:          0  dtHIT:          0  dtMISS:          0
LLC PREFETCH     ACCESS:    3025960  HIT:    2124450  MISS:     901510  iACCESS:    1432804  iHIT:    1083875  iMISS:     348929  dACCESS:    1593156  dHIT:    1040575  dMISS:     552581  itACCESS:          0  itHIT:          0  itMISS:          0  dtACCESS:          0  dtHIT:          0  dtMISS:          0
LLC WRITE        ACCESS:     205036  HIT:     202646  MISS:       2390  iACCESS:          0  iHIT:          0  iMISS:          0  dACCESS:     205036  dHIT:     202646  dMISS:       2390  itACCESS:          0  itHIT:          0  itMISS:          0  dtACCESS:          0  dtHIT:          0  dtMISS:          0
LLC TRANSLATION  ACCESS:     105295  HIT:      29818  MISS:      75477  iACCESS:          0  iHIT:          0  iMISS:          0  dACCESS:          0  dHIT:          0  dMISS:          0  itACCESS:      21087  itHIT:       5941  itMISS:      15146  dtACCESS:      84208  dtHIT:      23877  dtMISS:      60331
LLC PREFETCH  REQUESTED:          0  ISSUED:          0  CROSSED:          0  USEFUL:          0  USELESS:          0
LLC AVERAGE iMISS LATENCY: 48.7968 cycles
LLC AVERAGE dMISS LATENCY: 102.31 cycles
LLC AVERAGE itMISS LATENCY: 2.02754 cycles
LLC AVERAGE dtMISS LATENCY: 8.30728 cycles
LLC PAGE CROSSINGS (TLB HIT):         0 
LLC PAGE CROSSINGS (TLB MISS):         0 
LLC AVERAGE MISS LATENCY: 161.442 cycles

PageTableWalker TOTAL       ACCESS:     100044  
PageTableWalker AVERAGE LATENCY: 4.27014 cycles
PageTableWalker TOTAL LATENCY: 427201 cycles

DRAM Statistics
Channel 0
 RQ ROW_BUFFER_HIT:     360778
  ROW_BUFFER_MISS:     945037
 AVG DBUS CONGESTED CYCLE:    3.62744
 WQ ROW_BUFFER_HIT:      33244
  ROW_BUFFER_MISS:      32048  FULL:          0

