last_page:0x200000000000000
VMEM_RES_CAP:0x100000
PAGE_SIZE:4096
LOG2_PAGE_SIZE:12
LOG2_PAGE_TABLE_SIZE:9
page_table_levels:5
WARNING: physical memory size is smaller than virtual memory size
FDiP enabled with aggresivity 16

*** ChampSim Multicore Out-of-Order Simulator ***

Warmup Instructions: 50000000
Simulation Instructions: 100000000
Number of CPUs: 1
Small page size: 4096
Large page size: 2097152

CPU 0 Bimodal branch predictor
Basic BTB sets: 1024 ways: 8 indirect buffer size: 4096 RAS size: 64
Instruction page size distrubution: 0
Loading instruction page size distribution from /home/bsc/bsc018186/scratch/itp_asplos25_AE/dump/srv442_ap.pdst
Data page size distrubution: 0
Loading data page size distribution from /home/bsc/bsc018186/scratch/itp_asplos25_AE/dump/srv442_ap.pdst
cpu0_L2C IP-based stride prefetcher
cpu0_L1D next line prefetcher
CHiRPing...
cpu0_L1I next line prefetcher
Off-chip DRAM Size: 4 GiB Channels: 1 Width: 64-bit Data Rate: 3200 MT/s
Heartbeat CPU 0 instructions: 10000002 cycles: 2500194 heartbeat IPC: 3.9997 cumulative IPC: 3.9997 (Simulation time: 0 hr 0 min 39 sec) 
Heartbeat CPU 0 instructions: 20000001 cycles: 5000259 heartbeat IPC: 3.9999 cumulative IPC: 3.9998 (Simulation time: 0 hr 1 min 20 sec) 
Heartbeat CPU 0 instructions: 30000003 cycles: 7500315 heartbeat IPC: 3.99992 cumulative IPC: 3.99984 (Simulation time: 0 hr 2 min 2 sec) 
Heartbeat CPU 0 instructions: 40000003 cycles: 10000335 heartbeat IPC: 3.99997 cumulative IPC: 3.99987 (Simulation time: 0 hr 2 min 43 sec) 
Heartbeat CPU 0 instructions: 50000001 cycles: 12500339 heartbeat IPC: 4 cumulative IPC: 3.9999 (Simulation time: 0 hr 3 min 25 sec) 
Warmup finished CPU 0 instructions: 50000001 cycles: 12500340 cumulative IPC: 3.9999 (Simulation time: 0 hr 3 min 25 sec) 

Warmup complete CPU 0 instructions: 50000001 cycles: 12500340 (Simulation time: 0 hr 3 min 25 sec) 

Heartbeat CPU 0 instructions: 60000002 cycles: 33799056 heartbeat IPC: 0.469512 cumulative IPC: 0.469512 (Simulation time: 0 hr 4 min 39 sec) 
Heartbeat CPU 0 instructions: 70000004 cycles: 55364108 heartbeat IPC: 0.463714 cumulative IPC: 0.466595 (Simulation time: 0 hr 5 min 54 sec) 
Heartbeat CPU 0 instructions: 80000001 cycles: 76347094 heartbeat IPC: 0.476577 cumulative IPC: 0.469876 (Simulation time: 0 hr 7 min 7 sec) 
Heartbeat CPU 0 instructions: 90000000 cycles: 96609722 heartbeat IPC: 0.49352 cumulative IPC: 0.475572 (Simulation time: 0 hr 8 min 20 sec) 
Heartbeat CPU 0 instructions: 100000001 cycles: 117113116 heartbeat IPC: 0.487725 cumulative IPC: 0.477954 (Simulation time: 0 hr 9 min 33 sec) 
*** Reached end of trace: /gpfs/projects/bsc18/MN4/bsc18/romol/ChampSim/traces/qualcomm_srv/srv442_ap.champsimtrace.xz
Heartbeat CPU 0 instructions: 110000001 cycles: 137806462 heartbeat IPC: 0.483248 cumulative IPC: 0.478828 (Simulation time: 0 hr 10 min 47 sec) 
Heartbeat CPU 0 instructions: 120000004 cycles: 158505740 heartbeat IPC: 0.483109 cumulative IPC: 0.479435 (Simulation time: 0 hr 12 min 0 sec) 
Heartbeat CPU 0 instructions: 130000004 cycles: 179520743 heartbeat IPC: 0.475851 cumulative IPC: 0.478984 (Simulation time: 0 hr 13 min 14 sec) 
Heartbeat CPU 0 instructions: 140000002 cycles: 201207026 heartbeat IPC: 0.461121 cumulative IPC: 0.476931 (Simulation time: 0 hr 14 min 29 sec) 
Heartbeat CPU 0 instructions: 150000000 cycles: 221246753 heartbeat IPC: 0.499009 cumulative IPC: 0.479051 (Simulation time: 0 hr 15 min 43 sec) 
Simulation finished CPU 0 instructions: 100000001 cycles: 208746415 cumulative IPC: 0.479051 (Simulation time: 0 hr 15 min 43 sec) 

Simulation complete CPU 0 instructions: 100000001 cycles: 208746415 (Simulation time: 0 hr 15 min 43 sec) 


ChampSim completed all CPUs

Saving instructions large page distribution to /home/bsc/bsc018186/scratch/itp_asplos25_AE/dump/srv442_ap.pdst...
Saving data large page distribution to /home/bsc/bsc018186/scratch/itp_asplos25_AE/dump/srv442_ap.pdst...
=== Simulation ===
CPU 0 runs /gpfs/projects/bsc18/MN4/bsc18/romol/ChampSim/traces/qualcomm_srv/srv442_ap.champsimtrace.xz

Region of Interest Statistics

CPU 0 cumulative IPC: 0.479051 instructions: 100000001 cycles: 208746415
CPU 0 Branch Prediction Accuracy: 79.7214% MPKI: 36.634 Average ROB Occupancy at Mispredict: 10.6237
Branch type MPKI
BRANCH_DIRECT_JUMP: 1.39274
BRANCH_INDIRECT: 18.323
BRANCH_CONDITIONAL: 11.8127
BRANCH_DIRECT_CALL: 2.62395
BRANCH_INDIRECT_CALL: 0.67955
BRANCH_RETURN: 1.80208

Instructions large pages: 0
Instructions small pages: 1142
Large page distribution for instructions: 0%

Data large pages: 0
Data small pages: 5076
Large page distribution for data: 0%

cpu0_L1I TOTAL       ACCESS:   35980103  HIT:   27930564  MISS:    8049539  iACCESS:   35980103  iHIT:   27930564  iMISS:    8049539  dACCESS:          0  dHIT:          0  dMISS:          0  itACCESS:          0  itHIT:          0  itMISS:          0  dtACCESS:          0  dtHIT:          0  dtMISS:          0
cpu0_L1I LOAD         ACCESS:   10479145  HIT:    8272101  MISS:    2207044  iACCESS:   10479145  iHIT:    8272101  iMISS:    2207044  dACCESS:          0  dHIT:          0  dMISS:          0  itACCESS:          0  itHIT:          0  itMISS:          0  dtACCESS:          0  dtHIT:          0  dtMISS:          0
cpu0_L1I RFO          ACCESS:          0  HIT:          0  MISS:          0  iACCESS:          0  iHIT:          0  iMISS:          0  dACCESS:          0  dHIT:          0  dMISS:          0  itACCESS:          0  itHIT:          0  itMISS:          0  dtACCESS:          0  dtHIT:          0  dtMISS:          0
cpu0_L1I PREFETCH     ACCESS:   25500958  HIT:   19658463  MISS:    5842495  iACCESS:   25500958  iHIT:   19658463  iMISS:    5842495  dACCESS:          0  dHIT:          0  dMISS:          0  itACCESS:          0  itHIT:          0  itMISS:          0  dtACCESS:          0  dtHIT:          0  dtMISS:          0
cpu0_L1I WRITE        ACCESS:          0  HIT:          0  MISS:          0  iACCESS:          0  iHIT:          0  iMISS:          0  dACCESS:          0  dHIT:          0  dMISS:          0  itACCESS:          0  itHIT:          0  itMISS:          0  dtACCESS:          0  dtHIT:          0  dtMISS:          0
cpu0_L1I TRANSLATION  ACCESS:          0  HIT:          0  MISS:          0  iACCESS:          0  iHIT:          0  iMISS:          0  dACCESS:          0  dHIT:          0  dMISS:          0  itACCESS:          0  itHIT:          0  itMISS:          0  dtACCESS:          0  dtHIT:          0  dtMISS:          0
cpu0_L1I PREFETCH  REQUESTED:   28005651  ISSUED:   28005651  CROSSED:          0  USEFUL:    2036527  USELESS:     665938
cpu0_L1I AVERAGE iMISS LATENCY: 19.1037 cycles
cpu0_L1I AVERAGE dMISS LATENCY: 0 cycles
cpu0_L1I AVERAGE itMISS LATENCY: 0 cycles
cpu0_L1I AVERAGE dtMISS LATENCY: 0 cycles
cpu0_L1I PAGE CROSSINGS (TLB HIT):         0 
cpu0_L1I PAGE CROSSINGS (TLB MISS):         0 
cpu0_L1I AVERAGE MISS LATENCY: 19.1037 cycles
cpu0_ITLB TOTAL       ACCESS:   30297509  HIT:   28321527  MISS:    1975982  iACCESS:   30297509  iHIT:   28321527  iMISS:    1975982  dACCESS:          0  dHIT:          0  dMISS:          0  itACCESS:          0  itHIT:          0  itMISS:          0  dtACCESS:          0  dtHIT:          0  dtMISS:          0
cpu0_ITLB LOAD         ACCESS:   30297509  HIT:   28321527  MISS:    1975982  iACCESS:   30297509  iHIT:   28321527  iMISS:    1975982  dACCESS:          0  dHIT:          0  dMISS:          0  itACCESS:          0  itHIT:          0  itMISS:          0  dtACCESS:          0  dtHIT:          0  dtMISS:          0
cpu0_ITLB RFO          ACCESS:          0  HIT:          0  MISS:          0  iACCESS:          0  iHIT:          0  iMISS:          0  dACCESS:          0  dHIT:          0  dMISS:          0  itACCESS:          0  itHIT:          0  itMISS:          0  dtACCESS:          0  dtHIT:          0  dtMISS:          0
cpu0_ITLB PREFETCH     ACCESS:          0  HIT:          0  MISS:          0  iACCESS:          0  iHIT:          0  iMISS:          0  dACCESS:          0  dHIT:          0  dMISS:          0  itACCESS:          0  itHIT:          0  itMISS:          0  dtACCESS:          0  dtHIT:          0  dtMISS:          0
cpu0_ITLB WRITE        ACCESS:          0  HIT:          0  MISS:          0  iACCESS:          0  iHIT:          0  iMISS:          0  dACCESS:          0  dHIT:          0  dMISS:          0  itACCESS:          0  itHIT:          0  itMISS:          0  dtACCESS:          0  dtHIT:          0  dtMISS:          0
cpu0_ITLB TRANSLATION  ACCESS:          0  HIT:          0  MISS:          0  iACCESS:          0  iHIT:          0  iMISS:          0  dACCESS:          0  dHIT:          0  dMISS:          0  itACCESS:          0  itHIT:          0  itMISS:          0  dtACCESS:          0  dtHIT:          0  dtMISS:          0
cpu0_ITLB PREFETCH  REQUESTED:          0  ISSUED:          0  CROSSED:          0  USEFUL:     333568  USELESS:      67241
cpu0_ITLB AVERAGE iMISS LATENCY: 7.70414 cycles
cpu0_ITLB AVERAGE dMISS LATENCY: 0 cycles
cpu0_ITLB AVERAGE itMISS LATENCY: 0 cycles
cpu0_ITLB AVERAGE dtMISS LATENCY: 0 cycles
cpu0_ITLB PAGE CROSSINGS (TLB HIT):         0 
cpu0_ITLB PAGE CROSSINGS (TLB MISS):         0 
cpu0_ITLB AVERAGE MISS LATENCY: 7.70414 cycles
cpu0_DTLB TOTAL       ACCESS:   27957688  HIT:   25983074  MISS:    1974614  iACCESS:          0  iHIT:          0  iMISS:          0  dACCESS:   27957688  dHIT:   25983074  dMISS:    1974614  itACCESS:          0  itHIT:          0  itMISS:          0  dtACCESS:          0  dtHIT:          0  dtMISS:          0
cpu0_DTLB LOAD         ACCESS:   27957688  HIT:   25983074  MISS:    1974614  iACCESS:          0  iHIT:          0  iMISS:          0  dACCESS:   27957688  dHIT:   25983074  dMISS:    1974614  itACCESS:          0  itHIT:          0  itMISS:          0  dtACCESS:          0  dtHIT:          0  dtMISS:          0
cpu0_DTLB RFO          ACCESS:          0  HIT:          0  MISS:          0  iACCESS:          0  iHIT:          0  iMISS:          0  dACCESS:          0  dHIT:          0  dMISS:          0  itACCESS:          0  itHIT:          0  itMISS:          0  dtACCESS:          0  dtHIT:          0  dtMISS:          0
cpu0_DTLB PREFETCH     ACCESS:          0  HIT:          0  MISS:          0  iACCESS:          0  iHIT:          0  iMISS:          0  dACCESS:          0  dHIT:          0  dMISS:          0  itACCESS:          0  itHIT:          0  itMISS:          0  dtACCESS:          0  dtHIT:          0  dtMISS:          0
cpu0_DTLB WRITE        ACCESS:          0  HIT:          0  MISS:          0  iACCESS:          0  iHIT:          0  iMISS:          0  dACCESS:          0  dHIT:          0  dMISS:          0  itACCESS:          0  itHIT:          0  itMISS:          0  dtACCESS:          0  dtHIT:          0  dtMISS:          0
cpu0_DTLB TRANSLATION  ACCESS:          0  HIT:          0  MISS:          0  iACCESS:          0  iHIT:          0  iMISS:          0  dACCESS:          0  dHIT:          0  dMISS:          0  itACCESS:          0  itHIT:          0  itMISS:          0  dtACCESS:          0  dtHIT:          0  dtMISS:          0
cpu0_DTLB PREFETCH  REQUESTED:          0  ISSUED:          0  CROSSED:          0  USEFUL:          0  USELESS:          0
cpu0_DTLB AVERAGE iMISS LATENCY: 0 cycles
cpu0_DTLB AVERAGE dMISS LATENCY: 20.2498 cycles
cpu0_DTLB AVERAGE itMISS LATENCY: 0 cycles
cpu0_DTLB AVERAGE dtMISS LATENCY: 0 cycles
cpu0_DTLB PAGE CROSSINGS (TLB HIT):         0 
cpu0_DTLB PAGE CROSSINGS (TLB MISS):         0 
cpu0_DTLB AVERAGE MISS LATENCY: 20.2498 cycles
cpu0_STLB TOTAL       ACCESS:    1635368  HIT:    1401912  MISS:     233456  iACCESS:     400808  iHIT:     311296  iMISS:      89512  dACCESS:    1234560  dHIT:    1090616  dMISS:     143944  itACCESS:          0  itHIT:          0  itMISS:          0  dtACCESS:          0  dtHIT:          0  dtMISS:          0
cpu0_STLB LOAD         ACCESS:    1635368  HIT:    1401912  MISS:     233456  iACCESS:     400808  iHIT:     311296  iMISS:      89512  dACCESS:    1234560  dHIT:    1090616  dMISS:     143944  itACCESS:          0  itHIT:          0  itMISS:          0  dtACCESS:          0  dtHIT:          0  dtMISS:          0
cpu0_STLB RFO          ACCESS:          0  HIT:          0  MISS:          0  iACCESS:          0  iHIT:          0  iMISS:          0  dACCESS:          0  dHIT:          0  dMISS:          0  itACCESS:          0  itHIT:          0  itMISS:          0  dtACCESS:          0  dtHIT:          0  dtMISS:          0
cpu0_STLB PREFETCH     ACCESS:          0  HIT:          0  MISS:          0  iACCESS:          0  iHIT:          0  iMISS:          0  dACCESS:          0  dHIT:          0  dMISS:          0  itACCESS:          0  itHIT:          0  itMISS:          0  dtACCESS:          0  dtHIT:          0  dtMISS:          0
cpu0_STLB WRITE        ACCESS:          0  HIT:          0  MISS:          0  iACCESS:          0  iHIT:          0  iMISS:          0  dACCESS:          0  dHIT:          0  dMISS:          0  itACCESS:          0  itHIT:          0  itMISS:          0  dtACCESS:          0  dtHIT:          0  dtMISS:          0
cpu0_STLB TRANSLATION  ACCESS:          0  HIT:          0  MISS:          0  iACCESS:          0  iHIT:          0  iMISS:          0  dACCESS:          0  dHIT:          0  dMISS:          0  itACCESS:          0  itHIT:          0  itMISS:          0  dtACCESS:          0  dtHIT:          0  dtMISS:          0
cpu0_STLB PREFETCH  REQUESTED:          0  ISSUED:          0  CROSSED:          0  USEFUL:          0  USELESS:          0
cpu0_STLB AVERAGE iMISS LATENCY: 51.5177 cycles
cpu0_STLB AVERAGE dMISS LATENCY: 129.035 cycles
cpu0_STLB AVERAGE itMISS LATENCY: 0 cycles
cpu0_STLB AVERAGE dtMISS LATENCY: 0 cycles
cpu0_STLB PAGE CROSSINGS (TLB HIT):         0 
cpu0_STLB PAGE CROSSINGS (TLB MISS):         0 
cpu0_STLB AVERAGE MISS LATENCY: 180.553 cycles
cpu0_L1D TOTAL       ACCESS:   42693540  HIT:   38507669  MISS:    4185871  iACCESS:          0  iHIT:          0  iMISS:          0  dACCESS:   42401440  dHIT:   38483590  dMISS:    3917850  itACCESS:      95555  itHIT:      12926  itMISS:      82629  dtACCESS:     196545  dtHIT:      11153  dtMISS:     185392
cpu0_L1D LOAD         ACCESS:   19372515  HIT:   17585833  MISS:    1786682  iACCESS:          0  iHIT:          0  iMISS:          0  dACCESS:   19372515  dHIT:   17585833  dMISS:    1786682  itACCESS:          0  itHIT:          0  itMISS:          0  dtACCESS:          0  dtHIT:          0  dtMISS:          0
cpu0_L1D RFO          ACCESS:          0  HIT:          0  MISS:          0  iACCESS:          0  iHIT:          0  iMISS:          0  dACCESS:          0  dHIT:          0  dMISS:          0  itACCESS:          0  itHIT:          0  itMISS:          0  dtACCESS:          0  dtHIT:          0  dtMISS:          0
cpu0_L1D PREFETCH     ACCESS:   12868381  HIT:   11209464  MISS:    1658917  iACCESS:          0  iHIT:          0  iMISS:          0  dACCESS:   12868381  dHIT:   11209464  dMISS:    1658917  itACCESS:          0  itHIT:          0  itMISS:          0  dtACCESS:          0  dtHIT:          0  dtMISS:          0
cpu0_L1D WRITE        ACCESS:   10160544  HIT:    9688293  MISS:     472251  iACCESS:          0  iHIT:          0  iMISS:          0  dACCESS:   10160544  dHIT:    9688293  dMISS:     472251  itACCESS:          0  itHIT:          0  itMISS:          0  dtACCESS:          0  dtHIT:          0  dtMISS:          0
cpu0_L1D TRANSLATION  ACCESS:     292100  HIT:      24079  MISS:     268021  iACCESS:          0  iHIT:          0  iMISS:          0  dACCESS:          0  dHIT:          0  dMISS:          0  itACCESS:      95555  itHIT:      12926  itMISS:      82629  dtACCESS:     196545  dtHIT:      11153  dtMISS:     185392
cpu0_L1D PREFETCH  REQUESTED:   19372515  ISSUED:   17336761  CROSSED:          0  USEFUL:     312968  USELESS:     715867
cpu0_L1D AVERAGE iMISS LATENCY: 0 cycles
cpu0_L1D AVERAGE dMISS LATENCY: 40.8454 cycles
cpu0_L1D AVERAGE itMISS LATENCY: 2.68605 cycles
cpu0_L1D AVERAGE dtMISS LATENCY: 6.70156 cycles
cpu0_L1D PAGE CROSSINGS (TLB HIT):         0 
cpu0_L1D PAGE CROSSINGS (TLB MISS):         0 
cpu0_L1D AVERAGE MISS LATENCY: 50.233 cycles
cpu0_L2C TOTAL       ACCESS:    7435876  HIT:    3711573  MISS:    3724303  iACCESS:    3451868  iHIT:    2057021  iMISS:    1394847  dACCESS:    3720593  dHIT:    1616166  dMISS:    2104427  itACCESS:      82629  itHIT:      16056  itMISS:      66573  dtACCESS:     180786  dtHIT:      22330  dtMISS:     158456
cpu0_L2C LOAD         ACCESS:    1754749  HIT:     909517  MISS:     845232  iACCESS:     787791  iHIT:     498155  iMISS:     289636  dACCESS:     966958  dHIT:     411362  dMISS:     555596  itACCESS:          0  itHIT:          0  itMISS:          0  dtACCESS:          0  dtHIT:          0  dtMISS:          0
cpu0_L2C RFO          ACCESS:     163159  HIT:      60961  MISS:     102198  iACCESS:          0  iHIT:          0  iMISS:          0  dACCESS:     163159  dHIT:      60961  dMISS:     102198  itACCESS:          0  itHIT:          0  itMISS:          0  dtACCESS:          0  dtHIT:          0  dtMISS:          0
cpu0_L2C PREFETCH     ACCESS:    4977339  HIT:    2427441  MISS:    2549898  iACCESS:    2664077  iHIT:    1558866  iMISS:    1105211  dACCESS:    2313262  dHIT:     868575  dMISS:    1444687  itACCESS:          0  itHIT:          0  itMISS:          0  dtACCESS:          0  dtHIT:          0  dtMISS:          0
cpu0_L2C WRITE        ACCESS:     277214  HIT:     275268  MISS:       1946  iACCESS:          0  iHIT:          0  iMISS:          0  dACCESS:     277214  dHIT:     275268  dMISS:       1946  itACCESS:          0  itHIT:          0  itMISS:          0  dtACCESS:          0  dtHIT:          0  dtMISS:          0
cpu0_L2C TRANSLATION  ACCESS:     263415  HIT:      38386  MISS:     225029  iACCESS:          0  iHIT:          0  iMISS:          0  dACCESS:          0  dHIT:          0  dMISS:          0  itACCESS:      82629  itHIT:      16056  itMISS:      66573  dtACCESS:     180786  dtHIT:      22330  dtMISS:     158456
cpu0_L2C PREFETCH  REQUESTED:    1558689  ISSUED:    1558637  CROSSED:          0  USEFUL:     389982  USELESS:     310381
cpu0_L2C AVERAGE iMISS LATENCY: 33.0813 cycles
cpu0_L2C AVERAGE dMISS LATENCY: 58.8897 cycles
cpu0_L2C AVERAGE itMISS LATENCY: 2.80073 cycles
cpu0_L2C AVERAGE dtMISS LATENCY: 7.04993 cycles
cpu0_L2C PAGE CROSSINGS (TLB HIT):         0 
cpu0_L2C PAGE CROSSINGS (TLB MISS):         0 
cpu0_L2C AVERAGE MISS LATENCY: 101.822 cycles
LLC TOTAL       ACCESS:    3685475  HIT:    1739025  MISS:    1946450  iACCESS:    1313493  iHIT:     652136  iMISS:     661357  dACCESS:    2146953  dHIT:    1036070  dMISS:    1110883  itACCESS:      66573  itHIT:      14750  itMISS:      51823  dtACCESS:     158456  dtHIT:      36069  dtMISS:     122387
LLC LOAD         ACCESS:     839186  HIT:     415799  MISS:     423387  iACCESS:     288442  iHIT:     145779  iMISS:     142663  dACCESS:     550744  dHIT:     270020  dMISS:     280724  itACCESS:          0  itHIT:          0  itMISS:          0  dtACCESS:          0  dtHIT:          0  dtMISS:          0
LLC RFO          ACCESS:     102192  HIT:      38884  MISS:      63308  iACCESS:          0  iHIT:          0  iMISS:          0  dACCESS:     102192  dHIT:      38884  dMISS:      63308  itACCESS:          0  itHIT:          0  itMISS:          0  dtACCESS:          0  dtHIT:          0  dtMISS:          0
LLC PREFETCH     ACCESS:    2364724  HIT:    1087897  MISS:    1276827  iACCESS:    1025051  iHIT:     506357  iMISS:     518694  dACCESS:    1339673  dHIT:     581540  dMISS:     758133  itACCESS:          0  itHIT:          0  itMISS:          0  dtACCESS:          0  dtHIT:          0  dtMISS:          0
LLC WRITE        ACCESS:     154344  HIT:     145626  MISS:       8718  iACCESS:          0  iHIT:          0  iMISS:          0  dACCESS:     154344  dHIT:     145626  dMISS:       8718  itACCESS:          0  itHIT:          0  itMISS:          0  dtACCESS:          0  dtHIT:          0  dtMISS:          0
LLC TRANSLATION  ACCESS:     225029  HIT:      50819  MISS:     174210  iACCESS:          0  iHIT:          0  iMISS:          0  dACCESS:          0  dHIT:          0  dMISS:          0  itACCESS:      66573  itHIT:      14750  itMISS:      51823  dtACCESS:     158456  dtHIT:      36069  dtMISS:     122387
LLC PREFETCH  REQUESTED:          0  ISSUED:          0  CROSSED:          0  USEFUL:          0  USELESS:          0
LLC AVERAGE iMISS LATENCY: 50.1223 cycles
LLC AVERAGE dMISS LATENCY: 93.5301 cycles
LLC AVERAGE itMISS LATENCY: 4.68483 cycles
LLC AVERAGE dtMISS LATENCY: 11.8873 cycles
LLC PAGE CROSSINGS (TLB HIT):         0 
LLC PAGE CROSSINGS (TLB MISS):         0 
LLC AVERAGE MISS LATENCY: 160.225 cycles

PageTableWalker TOTAL       ACCESS:     116837  
PageTableWalker AVERAGE LATENCY: 5.0144 cycles
PageTableWalker TOTAL LATENCY: 585867 cycles

DRAM Statistics
Channel 0
 RQ ROW_BUFFER_HIT:     530037
  ROW_BUFFER_MISS:    1392261
 AVG DBUS CONGESTED CYCLE:    3.63698
 WQ ROW_BUFFER_HIT:      38009
  ROW_BUFFER_MISS:      26916  FULL:          0

