last_page:0x200000000000000
VMEM_RES_CAP:0x100000
PAGE_SIZE:4096
LOG2_PAGE_SIZE:12
LOG2_PAGE_TABLE_SIZE:9
page_table_levels:5
WARNING: physical memory size is smaller than virtual memory size
FDiP enabled with aggresivity 16

*** ChampSim Multicore Out-of-Order Simulator ***

Warmup Instructions: 50000000
Simulation Instructions: 100000000
Number of CPUs: 1
Small page size: 4096
Large page size: 2097152

CPU 0 Bimodal branch predictor
Basic BTB sets: 1024 ways: 8 indirect buffer size: 4096 RAS size: 64
Instruction page size distrubution: 0
Loading instruction page size distribution from /home/bsc/bsc018186/scratch/itp_asplos25_AE/dump/srv408_ap.pdst
Data page size distrubution: 0
Loading data page size distribution from /home/bsc/bsc018186/scratch/itp_asplos25_AE/dump/srv408_ap.pdst
cpu0_L2C IP-based stride prefetcher
cpu0_L1D next line prefetcher
cpu0_L1I next line prefetcher
Off-chip DRAM Size: 4 GiB Channels: 1 Width: 64-bit Data Rate: 3200 MT/s
Heartbeat CPU 0 instructions: 10000000 cycles: 2511065 heartbeat IPC: 3.98238 cumulative IPC: 3.98238 (Simulation time: 0 hr 0 min 35 sec) 
Heartbeat CPU 0 instructions: 20000004 cycles: 5557247 heartbeat IPC: 3.2828 cumulative IPC: 3.59891 (Simulation time: 0 hr 1 min 13 sec) 
Heartbeat CPU 0 instructions: 30000000 cycles: 8089751 heartbeat IPC: 3.94866 cumulative IPC: 3.7084 (Simulation time: 0 hr 1 min 51 sec) 
Heartbeat CPU 0 instructions: 40000002 cycles: 10589779 heartbeat IPC: 3.99996 cumulative IPC: 3.77723 (Simulation time: 0 hr 2 min 29 sec) 
Heartbeat CPU 0 instructions: 50000000 cycles: 13089871 heartbeat IPC: 3.99986 cumulative IPC: 3.81975 (Simulation time: 0 hr 3 min 7 sec) 
Warmup finished CPU 0 instructions: 50000000 cycles: 13089872 cumulative IPC: 3.81975 (Simulation time: 0 hr 3 min 7 sec) 

Warmup complete CPU 0 instructions: 50000000 cycles: 13089872 (Simulation time: 0 hr 3 min 7 sec) 

Heartbeat CPU 0 instructions: 60000000 cycles: 32541975 heartbeat IPC: 0.514084 cumulative IPC: 0.514084 (Simulation time: 0 hr 4 min 14 sec) 
Heartbeat CPU 0 instructions: 70000002 cycles: 52404285 heartbeat IPC: 0.503467 cumulative IPC: 0.50872 (Simulation time: 0 hr 5 min 22 sec) 
Heartbeat CPU 0 instructions: 80000004 cycles: 71610303 heartbeat IPC: 0.520671 cumulative IPC: 0.512642 (Simulation time: 0 hr 6 min 29 sec) 
Heartbeat CPU 0 instructions: 90000000 cycles: 91448327 heartbeat IPC: 0.504083 cumulative IPC: 0.510475 (Simulation time: 0 hr 7 min 37 sec) 
Heartbeat CPU 0 instructions: 100000000 cycles: 107694552 heartbeat IPC: 0.615528 cumulative IPC: 0.528516 (Simulation time: 0 hr 8 min 41 sec) 
*** Reached end of trace: /gpfs/projects/bsc18/MN4/bsc18/romol/ChampSim/traces/qualcomm_srv/srv408_ap.champsimtrace.xz
Heartbeat CPU 0 instructions: 110000000 cycles: 123459085 heartbeat IPC: 0.634336 cumulative IPC: 0.54363 (Simulation time: 0 hr 9 min 44 sec) 
Heartbeat CPU 0 instructions: 120000001 cycles: 133781172 heartbeat IPC: 0.968797 cumulative IPC: 0.579993 (Simulation time: 0 hr 10 min 49 sec) 
Heartbeat CPU 0 instructions: 130000000 cycles: 148936865 heartbeat IPC: 0.659818 cumulative IPC: 0.588898 (Simulation time: 0 hr 11 min 56 sec) 
Heartbeat CPU 0 instructions: 140000000 cycles: 167924672 heartbeat IPC: 0.526654 cumulative IPC: 0.581265 (Simulation time: 0 hr 13 min 9 sec) 
Heartbeat CPU 0 instructions: 150000000 cycles: 187893464 heartbeat IPC: 0.500782 cumulative IPC: 0.572071 (Simulation time: 0 hr 14 min 17 sec) 
Simulation finished CPU 0 instructions: 100000000 cycles: 174803593 cumulative IPC: 0.572071 (Simulation time: 0 hr 14 min 17 sec) 

Simulation complete CPU 0 instructions: 100000000 cycles: 174803593 (Simulation time: 0 hr 14 min 17 sec) 


ChampSim completed all CPUs

Saving instructions large page distribution to /home/bsc/bsc018186/scratch/itp_asplos25_AE/dump/srv408_ap.pdst...
Saving data large page distribution to /home/bsc/bsc018186/scratch/itp_asplos25_AE/dump/srv408_ap.pdst...
=== Simulation ===
CPU 0 runs /gpfs/projects/bsc18/MN4/bsc18/romol/ChampSim/traces/qualcomm_srv/srv408_ap.champsimtrace.xz

Region of Interest Statistics

CPU 0 cumulative IPC: 0.572071 instructions: 100000000 cycles: 174803593
CPU 0 Branch Prediction Accuracy: 83.374% MPKI: 33.2918 Average ROB Occupancy at Mispredict: 12.0175
Branch type MPKI
BRANCH_DIRECT_JUMP: 1.27823
BRANCH_INDIRECT: 16.7581
BRANCH_CONDITIONAL: 10.3962
BRANCH_DIRECT_CALL: 2.47862
BRANCH_INDIRECT_CALL: 0.715171
BRANCH_RETURN: 1.66559

Instructions large pages: 0
Instructions small pages: 1151
Large page distribution for instructions: 0%

Data large pages: 0
Data small pages: 4656
Large page distribution for data: 0%

cpu0_L1I TOTAL       ACCESS:   35212933  HIT:   28065285  MISS:    7147648  iACCESS:   35212933  iHIT:   28065285  iMISS:    7147648  dACCESS:          0  dHIT:          0  dMISS:          0  itACCESS:          0  itHIT:          0  itMISS:          0  dtACCESS:          0  dtHIT:          0  dtMISS:          0
cpu0_L1I LOAD         ACCESS:    9046231  HIT:    7096169  MISS:    1950062  iACCESS:    9046231  iHIT:    7096169  iMISS:    1950062  dACCESS:          0  dHIT:          0  dMISS:          0  itACCESS:          0  itHIT:          0  itMISS:          0  dtACCESS:          0  dtHIT:          0  dtMISS:          0
cpu0_L1I RFO          ACCESS:          0  HIT:          0  MISS:          0  iACCESS:          0  iHIT:          0  iMISS:          0  dACCESS:          0  dHIT:          0  dMISS:          0  itACCESS:          0  itHIT:          0  itMISS:          0  dtACCESS:          0  dtHIT:          0  dtMISS:          0
cpu0_L1I PREFETCH     ACCESS:   26166702  HIT:   20969116  MISS:    5197586  iACCESS:   26166702  iHIT:   20969116  iMISS:    5197586  dACCESS:          0  dHIT:          0  dMISS:          0  itACCESS:          0  itHIT:          0  itMISS:          0  dtACCESS:          0  dtHIT:          0  dtMISS:          0
cpu0_L1I WRITE        ACCESS:          0  HIT:          0  MISS:          0  iACCESS:          0  iHIT:          0  iMISS:          0  dACCESS:          0  dHIT:          0  dMISS:          0  itACCESS:          0  itHIT:          0  itMISS:          0  dtACCESS:          0  dtHIT:          0  dtMISS:          0
cpu0_L1I TRANSLATION  ACCESS:          0  HIT:          0  MISS:          0  iACCESS:          0  iHIT:          0  iMISS:          0  dACCESS:          0  dHIT:          0  dMISS:          0  itACCESS:          0  itHIT:          0  itMISS:          0  dtACCESS:          0  dtHIT:          0  dtMISS:          0
cpu0_L1I PREFETCH  REQUESTED:   28104538  ISSUED:   28103489  CROSSED:          0  USEFUL:    1730236  USELESS:     568059
cpu0_L1I AVERAGE iMISS LATENCY: 19.7865 cycles
cpu0_L1I AVERAGE dMISS LATENCY: 0 cycles
cpu0_L1I AVERAGE itMISS LATENCY: 0 cycles
cpu0_L1I AVERAGE dtMISS LATENCY: 0 cycles
cpu0_L1I PAGE CROSSINGS (TLB HIT):         0 
cpu0_L1I PAGE CROSSINGS (TLB MISS):         0 
cpu0_L1I AVERAGE MISS LATENCY: 19.7865 cycles
cpu0_ITLB TOTAL       ACCESS:   29582660  HIT:   27939112  MISS:    1643548  iACCESS:   29582660  iHIT:   27939112  iMISS:    1643548  dACCESS:          0  dHIT:          0  dMISS:          0  itACCESS:          0  itHIT:          0  itMISS:          0  dtACCESS:          0  dtHIT:          0  dtMISS:          0
cpu0_ITLB LOAD         ACCESS:   29582660  HIT:   27939112  MISS:    1643548  iACCESS:   29582660  iHIT:   27939112  iMISS:    1643548  dACCESS:          0  dHIT:          0  dMISS:          0  itACCESS:          0  itHIT:          0  itMISS:          0  dtACCESS:          0  dtHIT:          0  dtMISS:          0
cpu0_ITLB RFO          ACCESS:          0  HIT:          0  MISS:          0  iACCESS:          0  iHIT:          0  iMISS:          0  dACCESS:          0  dHIT:          0  dMISS:          0  itACCESS:          0  itHIT:          0  itMISS:          0  dtACCESS:          0  dtHIT:          0  dtMISS:          0
cpu0_ITLB PREFETCH     ACCESS:          0  HIT:          0  MISS:          0  iACCESS:          0  iHIT:          0  iMISS:          0  dACCESS:          0  dHIT:          0  dMISS:          0  itACCESS:          0  itHIT:          0  itMISS:          0  dtACCESS:          0  dtHIT:          0  dtMISS:          0
cpu0_ITLB WRITE        ACCESS:          0  HIT:          0  MISS:          0  iACCESS:          0  iHIT:          0  iMISS:          0  dACCESS:          0  dHIT:          0  dMISS:          0  itACCESS:          0  itHIT:          0  itMISS:          0  dtACCESS:          0  dtHIT:          0  dtMISS:          0
cpu0_ITLB TRANSLATION  ACCESS:          0  HIT:          0  MISS:          0  iACCESS:          0  iHIT:          0  iMISS:          0  dACCESS:          0  dHIT:          0  dMISS:          0  itACCESS:          0  itHIT:          0  itMISS:          0  dtACCESS:          0  dtHIT:          0  dtMISS:          0
cpu0_ITLB PREFETCH  REQUESTED:          0  ISSUED:          0  CROSSED:          0  USEFUL:     286007  USELESS:      55369
cpu0_ITLB AVERAGE iMISS LATENCY: 4.61857 cycles
cpu0_ITLB AVERAGE dMISS LATENCY: 0 cycles
cpu0_ITLB AVERAGE itMISS LATENCY: 0 cycles
cpu0_ITLB AVERAGE dtMISS LATENCY: 0 cycles
cpu0_ITLB PAGE CROSSINGS (TLB HIT):         0 
cpu0_ITLB PAGE CROSSINGS (TLB MISS):         0 
cpu0_ITLB AVERAGE MISS LATENCY: 4.61857 cycles
cpu0_DTLB TOTAL       ACCESS:   30707869  HIT:   25357765  MISS:    5350104  iACCESS:          0  iHIT:          0  iMISS:          0  dACCESS:   30707869  dHIT:   25357765  dMISS:    5350104  itACCESS:          0  itHIT:          0  itMISS:          0  dtACCESS:          0  dtHIT:          0  dtMISS:          0
cpu0_DTLB LOAD         ACCESS:   30707869  HIT:   25357765  MISS:    5350104  iACCESS:          0  iHIT:          0  iMISS:          0  dACCESS:   30707869  dHIT:   25357765  dMISS:    5350104  itACCESS:          0  itHIT:          0  itMISS:          0  dtACCESS:          0  dtHIT:          0  dtMISS:          0
cpu0_DTLB RFO          ACCESS:          0  HIT:          0  MISS:          0  iACCESS:          0  iHIT:          0  iMISS:          0  dACCESS:          0  dHIT:          0  dMISS:          0  itACCESS:          0  itHIT:          0  itMISS:          0  dtACCESS:          0  dtHIT:          0  dtMISS:          0
cpu0_DTLB PREFETCH     ACCESS:          0  HIT:          0  MISS:          0  iACCESS:          0  iHIT:          0  iMISS:          0  dACCESS:          0  dHIT:          0  dMISS:          0  itACCESS:          0  itHIT:          0  itMISS:          0  dtACCESS:          0  dtHIT:          0  dtMISS:          0
cpu0_DTLB WRITE        ACCESS:          0  HIT:          0  MISS:          0  iACCESS:          0  iHIT:          0  iMISS:          0  dACCESS:          0  dHIT:          0  dMISS:          0  itACCESS:          0  itHIT:          0  itMISS:          0  dtACCESS:          0  dtHIT:          0  dtMISS:          0
cpu0_DTLB TRANSLATION  ACCESS:          0  HIT:          0  MISS:          0  iACCESS:          0  iHIT:          0  iMISS:          0  dACCESS:          0  dHIT:          0  dMISS:          0  itACCESS:          0  itHIT:          0  itMISS:          0  dtACCESS:          0  dtHIT:          0  dtMISS:          0
cpu0_DTLB PREFETCH  REQUESTED:          0  ISSUED:          0  CROSSED:          0  USEFUL:          0  USELESS:          0
cpu0_DTLB AVERAGE iMISS LATENCY: 0 cycles
cpu0_DTLB AVERAGE dMISS LATENCY: 6.4435 cycles
cpu0_DTLB AVERAGE itMISS LATENCY: 0 cycles
cpu0_DTLB AVERAGE dtMISS LATENCY: 0 cycles
cpu0_DTLB PAGE CROSSINGS (TLB HIT):         0 
cpu0_DTLB PAGE CROSSINGS (TLB MISS):         0 
cpu0_DTLB AVERAGE MISS LATENCY: 6.4435 cycles
cpu0_STLB TOTAL       ACCESS:    3096984  HIT:    2883693  MISS:     213291  iACCESS:     341392  iHIT:     258184  iMISS:      83208  dACCESS:    2755592  dHIT:    2625509  dMISS:     130083  itACCESS:          0  itHIT:          0  itMISS:          0  dtACCESS:          0  dtHIT:          0  dtMISS:          0
cpu0_STLB LOAD         ACCESS:    3096984  HIT:    2883693  MISS:     213291  iACCESS:     341392  iHIT:     258184  iMISS:      83208  dACCESS:    2755592  dHIT:    2625509  dMISS:     130083  itACCESS:          0  itHIT:          0  itMISS:          0  dtACCESS:          0  dtHIT:          0  dtMISS:          0
cpu0_STLB RFO          ACCESS:          0  HIT:          0  MISS:          0  iACCESS:          0  iHIT:          0  iMISS:          0  dACCESS:          0  dHIT:          0  dMISS:          0  itACCESS:          0  itHIT:          0  itMISS:          0  dtACCESS:          0  dtHIT:          0  dtMISS:          0
cpu0_STLB PREFETCH     ACCESS:          0  HIT:          0  MISS:          0  iACCESS:          0  iHIT:          0  iMISS:          0  dACCESS:          0  dHIT:          0  dMISS:          0  itACCESS:          0  itHIT:          0  itMISS:          0  dtACCESS:          0  dtHIT:          0  dtMISS:          0
cpu0_STLB WRITE        ACCESS:          0  HIT:          0  MISS:          0  iACCESS:          0  iHIT:          0  iMISS:          0  dACCESS:          0  dHIT:          0  dMISS:          0  itACCESS:          0  itHIT:          0  itMISS:          0  dtACCESS:          0  dtHIT:          0  dtMISS:          0
cpu0_STLB TRANSLATION  ACCESS:          0  HIT:          0  MISS:          0  iACCESS:          0  iHIT:          0  iMISS:          0  dACCESS:          0  dHIT:          0  dMISS:          0  itACCESS:          0  itHIT:          0  itMISS:          0  dtACCESS:          0  dtHIT:          0  dtMISS:          0
cpu0_STLB PREFETCH  REQUESTED:          0  ISSUED:          0  CROSSED:          0  USEFUL:          0  USELESS:          0
cpu0_STLB AVERAGE iMISS LATENCY: 22.8086 cycles
cpu0_STLB AVERAGE dMISS LATENCY: 57.0664 cycles
cpu0_STLB AVERAGE itMISS LATENCY: 0 cycles
cpu0_STLB AVERAGE dtMISS LATENCY: 0 cycles
cpu0_STLB PAGE CROSSINGS (TLB HIT):         0 
cpu0_STLB PAGE CROSSINGS (TLB MISS):         0 
cpu0_STLB AVERAGE MISS LATENCY: 79.8749 cycles
cpu0_L1D TOTAL       ACCESS:   47594192  HIT:   39382747  MISS:    8211445  iACCESS:          0  iHIT:          0  iMISS:          0  dACCESS:   47321063  dHIT:   39360464  dMISS:    7960599  itACCESS:      89559  itHIT:      11910  itMISS:      77649  dtACCESS:     183570  dtHIT:      10373  dtMISS:     173197
cpu0_L1D LOAD         ACCESS:   23396722  HIT:   18570675  MISS:    4826047  iACCESS:          0  iHIT:          0  iMISS:          0  dACCESS:   23396722  dHIT:   18570675  dMISS:    4826047  itACCESS:          0  itHIT:          0  itMISS:          0  dtACCESS:          0  dtHIT:          0  dtMISS:          0
cpu0_L1D RFO          ACCESS:          0  HIT:          0  MISS:          0  iACCESS:          0  iHIT:          0  iMISS:          0  dACCESS:          0  dHIT:          0  dMISS:          0  itACCESS:          0  itHIT:          0  itMISS:          0  dtACCESS:          0  dtHIT:          0  dtMISS:          0
cpu0_L1D PREFETCH     ACCESS:   14341034  HIT:   11638911  MISS:    2702123  iACCESS:          0  iHIT:          0  iMISS:          0  dACCESS:   14341034  dHIT:   11638911  dMISS:    2702123  itACCESS:          0  itHIT:          0  itMISS:          0  dtACCESS:          0  dtHIT:          0  dtMISS:          0
cpu0_L1D WRITE        ACCESS:    9583307  HIT:    9150878  MISS:     432429  iACCESS:          0  iHIT:          0  iMISS:          0  dACCESS:    9583307  dHIT:    9150878  dMISS:     432429  itACCESS:          0  itHIT:          0  itMISS:          0  dtACCESS:          0  dtHIT:          0  dtMISS:          0
cpu0_L1D TRANSLATION  ACCESS:     273129  HIT:      22283  MISS:     250846  iACCESS:          0  iHIT:          0  iMISS:          0  dACCESS:          0  dHIT:          0  dMISS:          0  itACCESS:      89559  itHIT:      11910  itMISS:      77649  dtACCESS:     183570  dtHIT:      10373  dtMISS:     173197
cpu0_L1D PREFETCH  REQUESTED:   23396722  ISSUED:   17777001  CROSSED:          0  USEFUL:     260014  USELESS:     837204
cpu0_L1D AVERAGE iMISS LATENCY: 0 cycles
cpu0_L1D AVERAGE dMISS LATENCY: 23.9215 cycles
cpu0_L1D AVERAGE itMISS LATENCY: 0.505166 cycles
cpu0_L1D AVERAGE dtMISS LATENCY: 1.26097 cycles
cpu0_L1D PAGE CROSSINGS (TLB HIT):         0 
cpu0_L1D PAGE CROSSINGS (TLB MISS):         0 
cpu0_L1D AVERAGE MISS LATENCY: 25.6876 cycles
cpu0_L2C TOTAL       ACCESS:    8970243  HIT:    2738741  MISS:    6231502  iACCESS:    2917052  iHIT:     674853  iMISS:    2242199  dACCESS:    5811139  dHIT:    1918721  dMISS:    3892418  itACCESS:      77649  itHIT:      52713  itMISS:      24936  dtACCESS:     164403  dtHIT:      92454  dtMISS:      71949
cpu0_L2C LOAD         ACCESS:    3825976  HIT:    1413713  MISS:    2412263  iACCESS:     650135  iHIT:      97938  iMISS:     552197  dACCESS:    3175841  dHIT:    1315775  dMISS:    1860066  itACCESS:          0  itHIT:          0  itMISS:          0  dtACCESS:          0  dtHIT:          0  dtMISS:          0
cpu0_L2C RFO          ACCESS:     178798  HIT:      62612  MISS:     116186  iACCESS:          0  iHIT:          0  iMISS:          0  dACCESS:     178798  dHIT:      62612  dMISS:     116186  itACCESS:          0  itHIT:          0  itMISS:          0  dtACCESS:          0  dtHIT:          0  dtMISS:          0
cpu0_L2C PREFETCH     ACCESS:    4489665  HIT:    1014272  MISS:    3475393  iACCESS:    2266917  iHIT:     576915  iMISS:    1690002  dACCESS:    2222748  dHIT:     437357  dMISS:    1785391  itACCESS:          0  itHIT:          0  itMISS:          0  dtACCESS:          0  dtHIT:          0  dtMISS:          0
cpu0_L2C WRITE        ACCESS:     233752  HIT:     102977  MISS:     130775  iACCESS:          0  iHIT:          0  iMISS:          0  dACCESS:     233752  dHIT:     102977  dMISS:     130775  itACCESS:          0  itHIT:          0  itMISS:          0  dtACCESS:          0  dtHIT:          0  dtMISS:          0
cpu0_L2C TRANSLATION  ACCESS:     242052  HIT:     145167  MISS:      96885  iACCESS:          0  iHIT:          0  iMISS:          0  dACCESS:          0  dHIT:          0  dMISS:          0  itACCESS:      77649  itHIT:      52713  itMISS:      24936  dtACCESS:     164403  dtHIT:      92454  dtMISS:      71949
cpu0_L2C PREFETCH  REQUESTED:    1353051  ISSUED:    1353034  CROSSED:          0  USEFUL:     362869  USELESS:     390691
cpu0_L2C AVERAGE iMISS LATENCY: 18.5153 cycles
cpu0_L2C AVERAGE dMISS LATENCY: 33.66 cycles
cpu0_L2C AVERAGE itMISS LATENCY: 0.549216 cycles
cpu0_L2C AVERAGE dtMISS LATENCY: 1.4117 cycles
cpu0_L2C PAGE CROSSINGS (TLB HIT):         0 
cpu0_L2C PAGE CROSSINGS (TLB MISS):         0 
cpu0_L2C AVERAGE MISS LATENCY: 54.1362 cycles
LLC TOTAL       ACCESS:    6053250  HIT:    4633739  MISS:    1419511  iACCESS:    2173053  iHIT:    1670761  iMISS:     502292  dACCESS:    3783312  dHIT:    2922679  dMISS:     860633  itACCESS:      24936  itHIT:       8143  itMISS:      16793  dtACCESS:      71949  dtHIT:      32156  dtMISS:      39793
LLC LOAD         ACCESS:    2406583  HIT:    2092910  MISS:     313673  iACCESS:     551089  iHIT:     448696  iMISS:     102393  dACCESS:    1855494  dHIT:    1644214  dMISS:     211280  itACCESS:          0  itHIT:          0  itMISS:          0  dtACCESS:          0  dtHIT:          0  dtMISS:          0
LLC RFO          ACCESS:     116180  HIT:      64391  MISS:      51789  iACCESS:          0  iHIT:          0  iMISS:          0  dACCESS:     116180  dHIT:      64391  dMISS:      51789  itACCESS:          0  itHIT:          0  itMISS:          0  dtACCESS:          0  dtHIT:          0  dtMISS:          0
LLC PREFETCH     ACCESS:    3299932  HIT:    2311546  MISS:     988386  iACCESS:    1621964  iHIT:    1222065  iMISS:     399899  dACCESS:    1677968  dHIT:    1089481  dMISS:     588487  itACCESS:          0  itHIT:          0  itMISS:          0  dtACCESS:          0  dtHIT:          0  dtMISS:          0
LLC WRITE        ACCESS:     133670  HIT:     124593  MISS:       9077  iACCESS:          0  iHIT:          0  iMISS:          0  dACCESS:     133670  dHIT:     124593  dMISS:       9077  itACCESS:          0  itHIT:          0  itMISS:          0  dtACCESS:          0  dtHIT:          0  dtMISS:          0
LLC TRANSLATION  ACCESS:      96885  HIT:      40299  MISS:      56586  iACCESS:          0  iHIT:          0  iMISS:          0  dACCESS:          0  dHIT:          0  dMISS:          0  itACCESS:      24936  itHIT:       8143  itMISS:      16793  dtACCESS:      71949  dtHIT:      32156  dtMISS:      39793
LLC PREFETCH  REQUESTED:          0  ISSUED:          0  CROSSED:          0  USEFUL:          0  USELESS:          0
LLC AVERAGE iMISS LATENCY: 51.6393 cycles
LLC AVERAGE dMISS LATENCY: 98.8209 cycles
LLC AVERAGE itMISS LATENCY: 2.06613 cycles
LLC AVERAGE dtMISS LATENCY: 5.20777 cycles
LLC PAGE CROSSINGS (TLB HIT):         0 
LLC PAGE CROSSINGS (TLB MISS):         0 
LLC AVERAGE MISS LATENCY: 157.735 cycles

PageTableWalker TOTAL       ACCESS:     100961  
PageTableWalker AVERAGE LATENCY: 4.34095 cycles
PageTableWalker TOTAL LATENCY: 438266 cycles

DRAM Statistics
Channel 0
 RQ ROW_BUFFER_HIT:     420149
  ROW_BUFFER_MISS:     976788
 AVG DBUS CONGESTED CYCLE:    3.63763
 WQ ROW_BUFFER_HIT:      26996
  ROW_BUFFER_MISS:      21712  FULL:          0

