last_page:0x200000000000000
VMEM_RES_CAP:0x100000
PAGE_SIZE:4096
LOG2_PAGE_SIZE:12
LOG2_PAGE_TABLE_SIZE:9
page_table_levels:5
WARNING: physical memory size is smaller than virtual memory size
FDiP enabled with aggresivity 16

*** ChampSim Multicore Out-of-Order Simulator ***

Warmup Instructions: 50000000
Simulation Instructions: 100000000
Number of CPUs: 1
Small page size: 4096
Large page size: 2097152

CPU 0 Bimodal branch predictor
Basic BTB sets: 1024 ways: 8 indirect buffer size: 4096 RAS size: 64
Instruction page size distrubution: 0
Loading instruction page size distribution from /home/bsc/bsc018186/scratch/itp_asplos25_AE/dump/srv403_ap.pdst
Data page size distrubution: 0
Loading data page size distribution from /home/bsc/bsc018186/scratch/itp_asplos25_AE/dump/srv403_ap.pdst
cpu0_L2C IP-based stride prefetcher
cpu0_L1D next line prefetcher
CHiRPing...
cpu0_L1I next line prefetcher
Off-chip DRAM Size: 4 GiB Channels: 1 Width: 64-bit Data Rate: 3200 MT/s
Heartbeat CPU 0 instructions: 10000003 cycles: 2500325 heartbeat IPC: 3.99949 cumulative IPC: 3.99949 (Simulation time: 0 hr 0 min 38 sec) 
Heartbeat CPU 0 instructions: 20000002 cycles: 5000389 heartbeat IPC: 3.9999 cumulative IPC: 3.99969 (Simulation time: 0 hr 1 min 18 sec) 
Heartbeat CPU 0 instructions: 30000002 cycles: 7500436 heartbeat IPC: 3.99993 cumulative IPC: 3.99977 (Simulation time: 0 hr 1 min 58 sec) 
Heartbeat CPU 0 instructions: 40000000 cycles: 10000465 heartbeat IPC: 3.99996 cumulative IPC: 3.99982 (Simulation time: 0 hr 2 min 39 sec) 
Heartbeat CPU 0 instructions: 50000000 cycles: 12500470 heartbeat IPC: 4 cumulative IPC: 3.99985 (Simulation time: 0 hr 3 min 20 sec) 
Warmup finished CPU 0 instructions: 50000000 cycles: 12500471 cumulative IPC: 3.99985 (Simulation time: 0 hr 3 min 20 sec) 

Warmup complete CPU 0 instructions: 50000000 cycles: 12500471 (Simulation time: 0 hr 3 min 20 sec) 

Heartbeat CPU 0 instructions: 60000001 cycles: 27745172 heartbeat IPC: 0.655966 cumulative IPC: 0.655966 (Simulation time: 0 hr 4 min 26 sec) 
Heartbeat CPU 0 instructions: 70000000 cycles: 42722208 heartbeat IPC: 0.667689 cumulative IPC: 0.661776 (Simulation time: 0 hr 5 min 32 sec) 
Heartbeat CPU 0 instructions: 80000000 cycles: 58084623 heartbeat IPC: 0.65094 cumulative IPC: 0.658124 (Simulation time: 0 hr 6 min 39 sec) 
Heartbeat CPU 0 instructions: 90000002 cycles: 74176305 heartbeat IPC: 0.62144 cumulative IPC: 0.648553 (Simulation time: 0 hr 7 min 46 sec) 
Heartbeat CPU 0 instructions: 100000004 cycles: 89469905 heartbeat IPC: 0.653869 cumulative IPC: 0.649609 (Simulation time: 0 hr 8 min 52 sec) 
*** Reached end of trace: /gpfs/projects/bsc18/MN4/bsc18/romol/ChampSim/traces/qualcomm_srv/srv403_ap.champsimtrace.xz
Heartbeat CPU 0 instructions: 110000000 cycles: 105345602 heartbeat IPC: 0.629894 cumulative IPC: 0.646238 (Simulation time: 0 hr 9 min 59 sec) 
Heartbeat CPU 0 instructions: 120000000 cycles: 120307128 heartbeat IPC: 0.668382 cumulative IPC: 0.649311 (Simulation time: 0 hr 11 min 5 sec) 
Heartbeat CPU 0 instructions: 130000001 cycles: 135664664 heartbeat IPC: 0.651147 cumulative IPC: 0.64954 (Simulation time: 0 hr 12 min 11 sec) 
Heartbeat CPU 0 instructions: 140000000 cycles: 151780553 heartbeat IPC: 0.620506 cumulative IPC: 0.64618 (Simulation time: 0 hr 13 min 19 sec) 
Heartbeat CPU 0 instructions: 150000004 cycles: 166999787 heartbeat IPC: 0.657064 cumulative IPC: 0.647253 (Simulation time: 0 hr 14 min 25 sec) 
Simulation finished CPU 0 instructions: 100000004 cycles: 154499317 cumulative IPC: 0.647253 (Simulation time: 0 hr 14 min 25 sec) 

Simulation complete CPU 0 instructions: 100000004 cycles: 154499317 (Simulation time: 0 hr 14 min 25 sec) 


ChampSim completed all CPUs

Saving instructions large page distribution to /home/bsc/bsc018186/scratch/itp_asplos25_AE/dump/srv403_ap.pdst...
Saving data large page distribution to /home/bsc/bsc018186/scratch/itp_asplos25_AE/dump/srv403_ap.pdst...
=== Simulation ===
CPU 0 runs /gpfs/projects/bsc18/MN4/bsc18/romol/ChampSim/traces/qualcomm_srv/srv403_ap.champsimtrace.xz

Region of Interest Statistics

CPU 0 cumulative IPC: 0.647253 instructions: 100000004 cycles: 154499317
CPU 0 Branch Prediction Accuracy: 82.8226% MPKI: 30.6827 Average ROB Occupancy at Mispredict: 12.8485
Branch type MPKI
BRANCH_DIRECT_JUMP: 1.04485
BRANCH_INDIRECT: 15.6331
BRANCH_CONDITIONAL: 10.2335
BRANCH_DIRECT_CALL: 1.90047
BRANCH_INDIRECT_CALL: 0.51571
BRANCH_RETURN: 1.35517

Instructions large pages: 0
Instructions small pages: 999
Large page distribution for instructions: 0%

Data large pages: 0
Data small pages: 9945
Large page distribution for data: 0%

cpu0_L1I TOTAL       ACCESS:   34981721  HIT:   27153016  MISS:    7828705  iACCESS:   34981721  iHIT:   27153016  iMISS:    7828705  dACCESS:          0  dHIT:          0  dMISS:          0  itACCESS:          0  itHIT:          0  itMISS:          0  dtACCESS:          0  dtHIT:          0  dtMISS:          0
cpu0_L1I LOAD         ACCESS:   10265485  HIT:    8069291  MISS:    2196194  iACCESS:   10265485  iHIT:    8069291  iMISS:    2196194  dACCESS:          0  dHIT:          0  dMISS:          0  itACCESS:          0  itHIT:          0  itMISS:          0  dtACCESS:          0  dtHIT:          0  dtMISS:          0
cpu0_L1I RFO          ACCESS:          0  HIT:          0  MISS:          0  iACCESS:          0  iHIT:          0  iMISS:          0  dACCESS:          0  dHIT:          0  dMISS:          0  itACCESS:          0  itHIT:          0  itMISS:          0  dtACCESS:          0  dtHIT:          0  dtMISS:          0
cpu0_L1I PREFETCH     ACCESS:   24716236  HIT:   19083725  MISS:    5632511  iACCESS:   24716236  iHIT:   19083725  iMISS:    5632511  dACCESS:          0  dHIT:          0  dMISS:          0  itACCESS:          0  itHIT:          0  itMISS:          0  dtACCESS:          0  dtHIT:          0  dtMISS:          0
cpu0_L1I WRITE        ACCESS:          0  HIT:          0  MISS:          0  iACCESS:          0  iHIT:          0  iMISS:          0  dACCESS:          0  dHIT:          0  dMISS:          0  itACCESS:          0  itHIT:          0  itMISS:          0  dtACCESS:          0  dtHIT:          0  dtMISS:          0
cpu0_L1I TRANSLATION  ACCESS:          0  HIT:          0  MISS:          0  iACCESS:          0  iHIT:          0  iMISS:          0  dACCESS:          0  dHIT:          0  dMISS:          0  itACCESS:          0  itHIT:          0  itMISS:          0  dtACCESS:          0  dtHIT:          0  dtMISS:          0
cpu0_L1I PREFETCH  REQUESTED:   27256690  ISSUED:   27256690  CROSSED:          0  USEFUL:    1931869  USELESS:     625459
cpu0_L1I AVERAGE iMISS LATENCY: 12.9334 cycles
cpu0_L1I AVERAGE dMISS LATENCY: 0 cycles
cpu0_L1I AVERAGE itMISS LATENCY: 0 cycles
cpu0_L1I AVERAGE dtMISS LATENCY: 0 cycles
cpu0_L1I PAGE CROSSINGS (TLB HIT):         0 
cpu0_L1I PAGE CROSSINGS (TLB MISS):         0 
cpu0_L1I AVERAGE MISS LATENCY: 12.9334 cycles
cpu0_ITLB TOTAL       ACCESS:   29217924  HIT:   27273538  MISS:    1944386  iACCESS:   29217924  iHIT:   27273538  iMISS:    1944386  dACCESS:          0  dHIT:          0  dMISS:          0  itACCESS:          0  itHIT:          0  itMISS:          0  dtACCESS:          0  dtHIT:          0  dtMISS:          0
cpu0_ITLB LOAD         ACCESS:   29217924  HIT:   27273538  MISS:    1944386  iACCESS:   29217924  iHIT:   27273538  iMISS:    1944386  dACCESS:          0  dHIT:          0  dMISS:          0  itACCESS:          0  itHIT:          0  itMISS:          0  dtACCESS:          0  dtHIT:          0  dtMISS:          0
cpu0_ITLB RFO          ACCESS:          0  HIT:          0  MISS:          0  iACCESS:          0  iHIT:          0  iMISS:          0  dACCESS:          0  dHIT:          0  dMISS:          0  itACCESS:          0  itHIT:          0  itMISS:          0  dtACCESS:          0  dtHIT:          0  dtMISS:          0
cpu0_ITLB PREFETCH     ACCESS:          0  HIT:          0  MISS:          0  iACCESS:          0  iHIT:          0  iMISS:          0  dACCESS:          0  dHIT:          0  dMISS:          0  itACCESS:          0  itHIT:          0  itMISS:          0  dtACCESS:          0  dtHIT:          0  dtMISS:          0
cpu0_ITLB WRITE        ACCESS:          0  HIT:          0  MISS:          0  iACCESS:          0  iHIT:          0  iMISS:          0  dACCESS:          0  dHIT:          0  dMISS:          0  itACCESS:          0  itHIT:          0  itMISS:          0  dtACCESS:          0  dtHIT:          0  dtMISS:          0
cpu0_ITLB TRANSLATION  ACCESS:          0  HIT:          0  MISS:          0  iACCESS:          0  iHIT:          0  iMISS:          0  dACCESS:          0  dHIT:          0  dMISS:          0  itACCESS:          0  itHIT:          0  itMISS:          0  dtACCESS:          0  dtHIT:          0  dtMISS:          0
cpu0_ITLB PREFETCH  REQUESTED:          0  ISSUED:          0  CROSSED:          0  USEFUL:     316080  USELESS:      64516
cpu0_ITLB AVERAGE iMISS LATENCY: 5.05431 cycles
cpu0_ITLB AVERAGE dMISS LATENCY: 0 cycles
cpu0_ITLB AVERAGE itMISS LATENCY: 0 cycles
cpu0_ITLB AVERAGE dtMISS LATENCY: 0 cycles
cpu0_ITLB PAGE CROSSINGS (TLB HIT):         0 
cpu0_ITLB PAGE CROSSINGS (TLB MISS):         0 
cpu0_ITLB AVERAGE MISS LATENCY: 5.05431 cycles
cpu0_DTLB TOTAL       ACCESS:   27717946  HIT:   25614253  MISS:    2103693  iACCESS:          0  iHIT:          0  iMISS:          0  dACCESS:   27717946  dHIT:   25614253  dMISS:    2103693  itACCESS:          0  itHIT:          0  itMISS:          0  dtACCESS:          0  dtHIT:          0  dtMISS:          0
cpu0_DTLB LOAD         ACCESS:   27717946  HIT:   25614253  MISS:    2103693  iACCESS:          0  iHIT:          0  iMISS:          0  dACCESS:   27717946  dHIT:   25614253  dMISS:    2103693  itACCESS:          0  itHIT:          0  itMISS:          0  dtACCESS:          0  dtHIT:          0  dtMISS:          0
cpu0_DTLB RFO          ACCESS:          0  HIT:          0  MISS:          0  iACCESS:          0  iHIT:          0  iMISS:          0  dACCESS:          0  dHIT:          0  dMISS:          0  itACCESS:          0  itHIT:          0  itMISS:          0  dtACCESS:          0  dtHIT:          0  dtMISS:          0
cpu0_DTLB PREFETCH     ACCESS:          0  HIT:          0  MISS:          0  iACCESS:          0  iHIT:          0  iMISS:          0  dACCESS:          0  dHIT:          0  dMISS:          0  itACCESS:          0  itHIT:          0  itMISS:          0  dtACCESS:          0  dtHIT:          0  dtMISS:          0
cpu0_DTLB WRITE        ACCESS:          0  HIT:          0  MISS:          0  iACCESS:          0  iHIT:          0  iMISS:          0  dACCESS:          0  dHIT:          0  dMISS:          0  itACCESS:          0  itHIT:          0  itMISS:          0  dtACCESS:          0  dtHIT:          0  dtMISS:          0
cpu0_DTLB TRANSLATION  ACCESS:          0  HIT:          0  MISS:          0  iACCESS:          0  iHIT:          0  iMISS:          0  dACCESS:          0  dHIT:          0  dMISS:          0  itACCESS:          0  itHIT:          0  itMISS:          0  dtACCESS:          0  dtHIT:          0  dtMISS:          0
cpu0_DTLB PREFETCH  REQUESTED:          0  ISSUED:          0  CROSSED:          0  USEFUL:          0  USELESS:          0
cpu0_DTLB AVERAGE iMISS LATENCY: 0 cycles
cpu0_DTLB AVERAGE dMISS LATENCY: 14.8081 cycles
cpu0_DTLB AVERAGE itMISS LATENCY: 0 cycles
cpu0_DTLB AVERAGE dtMISS LATENCY: 0 cycles
cpu0_DTLB PAGE CROSSINGS (TLB HIT):         0 
cpu0_DTLB PAGE CROSSINGS (TLB MISS):         0 
cpu0_DTLB AVERAGE MISS LATENCY: 14.8081 cycles
cpu0_STLB TOTAL       ACCESS:    1623362  HIT:    1454868  MISS:     168494  iACCESS:     380602  iHIT:     322183  iMISS:      58419  dACCESS:    1242760  dHIT:    1132685  dMISS:     110075  itACCESS:          0  itHIT:          0  itMISS:          0  dtACCESS:          0  dtHIT:          0  dtMISS:          0
cpu0_STLB LOAD         ACCESS:    1623362  HIT:    1454868  MISS:     168494  iACCESS:     380602  iHIT:     322183  iMISS:      58419  dACCESS:    1242760  dHIT:    1132685  dMISS:     110075  itACCESS:          0  itHIT:          0  itMISS:          0  dtACCESS:          0  dtHIT:          0  dtMISS:          0
cpu0_STLB RFO          ACCESS:          0  HIT:          0  MISS:          0  iACCESS:          0  iHIT:          0  iMISS:          0  dACCESS:          0  dHIT:          0  dMISS:          0  itACCESS:          0  itHIT:          0  itMISS:          0  dtACCESS:          0  dtHIT:          0  dtMISS:          0
cpu0_STLB PREFETCH     ACCESS:          0  HIT:          0  MISS:          0  iACCESS:          0  iHIT:          0  iMISS:          0  dACCESS:          0  dHIT:          0  dMISS:          0  itACCESS:          0  itHIT:          0  itMISS:          0  dtACCESS:          0  dtHIT:          0  dtMISS:          0
cpu0_STLB WRITE        ACCESS:          0  HIT:          0  MISS:          0  iACCESS:          0  iHIT:          0  iMISS:          0  dACCESS:          0  dHIT:          0  dMISS:          0  itACCESS:          0  itHIT:          0  itMISS:          0  dtACCESS:          0  dtHIT:          0  dtMISS:          0
cpu0_STLB TRANSLATION  ACCESS:          0  HIT:          0  MISS:          0  iACCESS:          0  iHIT:          0  iMISS:          0  dACCESS:          0  dHIT:          0  dMISS:          0  itACCESS:          0  itHIT:          0  itMISS:          0  dtACCESS:          0  dtHIT:          0  dtMISS:          0
cpu0_STLB PREFETCH  REQUESTED:          0  ISSUED:          0  CROSSED:          0  USEFUL:          0  USELESS:          0
cpu0_STLB AVERAGE iMISS LATENCY: 40.4756 cycles
cpu0_STLB AVERAGE dMISS LATENCY: 126.075 cycles
cpu0_STLB AVERAGE itMISS LATENCY: 0 cycles
cpu0_STLB AVERAGE dtMISS LATENCY: 0 cycles
cpu0_STLB PAGE CROSSINGS (TLB HIT):         0 
cpu0_STLB PAGE CROSSINGS (TLB MISS):         0 
cpu0_STLB AVERAGE MISS LATENCY: 166.551 cycles
cpu0_L1D TOTAL       ACCESS:   41478734  HIT:   38032473  MISS:    3446261  iACCESS:          0  iHIT:          0  iMISS:          0  dACCESS:   41249281  dHIT:   38012130  dMISS:    3237151  itACCESS:      63124  itHIT:       9254  itMISS:      53870  dtACCESS:     166329  dtHIT:      11089  dtMISS:     155240
cpu0_L1D LOAD         ACCESS:   18917512  HIT:   17443369  MISS:    1474143  iACCESS:          0  iHIT:          0  iMISS:          0  dACCESS:   18917512  dHIT:   17443369  dMISS:    1474143  itACCESS:          0  itHIT:          0  itMISS:          0  dtACCESS:          0  dtHIT:          0  dtMISS:          0
cpu0_L1D RFO          ACCESS:          0  HIT:          0  MISS:          0  iACCESS:          0  iHIT:          0  iMISS:          0  dACCESS:          0  dHIT:          0  dMISS:          0  itACCESS:          0  itHIT:          0  itMISS:          0  dtACCESS:          0  dtHIT:          0  dtMISS:          0
cpu0_L1D PREFETCH     ACCESS:   12157931  HIT:   10833970  MISS:    1323961  iACCESS:          0  iHIT:          0  iMISS:          0  dACCESS:   12157931  dHIT:   10833970  dMISS:    1323961  itACCESS:          0  itHIT:          0  itMISS:          0  dtACCESS:          0  dtHIT:          0  dtMISS:          0
cpu0_L1D WRITE        ACCESS:   10173838  HIT:    9734791  MISS:     439047  iACCESS:          0  iHIT:          0  iMISS:          0  dACCESS:   10173838  dHIT:    9734791  dMISS:     439047  itACCESS:          0  itHIT:          0  itMISS:          0  dtACCESS:          0  dtHIT:          0  dtMISS:          0
cpu0_L1D TRANSLATION  ACCESS:     229453  HIT:      20343  MISS:     209110  iACCESS:          0  iHIT:          0  iMISS:          0  dACCESS:          0  dHIT:          0  dMISS:          0  itACCESS:      63124  itHIT:       9254  itMISS:      53870  dtACCESS:     166329  dtHIT:      11089  dtMISS:     155240
cpu0_L1D PREFETCH  REQUESTED:   18917512  ISSUED:   17034091  CROSSED:          0  USEFUL:     307553  USELESS:     704552
cpu0_L1D AVERAGE iMISS LATENCY: 0 cycles
cpu0_L1D AVERAGE dMISS LATENCY: 33.3332 cycles
cpu0_L1D AVERAGE itMISS LATENCY: 1.83401 cycles
cpu0_L1D AVERAGE dtMISS LATENCY: 5.45371 cycles
cpu0_L1D PAGE CROSSINGS (TLB HIT):         0 
cpu0_L1D PAGE CROSSINGS (TLB MISS):         0 
cpu0_L1D AVERAGE MISS LATENCY: 40.6209 cycles
cpu0_L2C TOTAL       ACCESS:    7001927  HIT:    4010507  MISS:    2991420  iACCESS:    3302516  iHIT:    2184922  iMISS:    1117594  dACCESS:    3500555  dHIT:    1798327  dMISS:    1702228  itACCESS:      53870  itHIT:       9474  itMISS:      44396  dtACCESS:     144986  dtHIT:      17784  dtMISS:     127202
cpu0_L2C LOAD         ACCESS:    1718073  HIT:    1019666  MISS:     698407  iACCESS:     784791  iHIT:     545644  iMISS:     239147  dACCESS:     933282  dHIT:     474022  dMISS:     459260  itACCESS:          0  itHIT:          0  itMISS:          0  dtACCESS:          0  dtHIT:          0  dtMISS:          0
cpu0_L2C RFO          ACCESS:     158838  HIT:      70908  MISS:      87930  iACCESS:          0  iHIT:          0  iMISS:          0  dACCESS:     158838  dHIT:      70908  dMISS:      87930  itACCESS:          0  itHIT:          0  itMISS:          0  dtACCESS:          0  dtHIT:          0  dtMISS:          0
cpu0_L2C PREFETCH     ACCESS:    4643610  HIT:    2611539  MISS:    2032071  iACCESS:    2517725  iHIT:    1639278  iMISS:     878447  dACCESS:    2125885  dHIT:     972261  dMISS:    1153624  itACCESS:          0  itHIT:          0  itMISS:          0  dtACCESS:          0  dtHIT:          0  dtMISS:          0
cpu0_L2C WRITE        ACCESS:     282550  HIT:     281136  MISS:       1414  iACCESS:          0  iHIT:          0  iMISS:          0  dACCESS:     282550  dHIT:     281136  dMISS:       1414  itACCESS:          0  itHIT:          0  itMISS:          0  dtACCESS:          0  dtHIT:          0  dtMISS:          0
cpu0_L2C TRANSLATION  ACCESS:     198856  HIT:      27258  MISS:     171598  iACCESS:          0  iHIT:          0  iMISS:          0  dACCESS:          0  dHIT:          0  dMISS:          0  itACCESS:      53870  itHIT:       9474  itMISS:      44396  dtACCESS:     144986  dtHIT:      17784  dtMISS:     127202
cpu0_L2C PREFETCH  REQUESTED:    1373268  ISSUED:    1373268  CROSSED:          0  USEFUL:     331643  USELESS:     234123
cpu0_L2C AVERAGE iMISS LATENCY: 23.8566 cycles
cpu0_L2C AVERAGE dMISS LATENCY: 45.1292 cycles
cpu0_L2C AVERAGE itMISS LATENCY: 1.93551 cycles
cpu0_L2C AVERAGE dtMISS LATENCY: 5.80031 cycles
cpu0_L2C PAGE CROSSINGS (TLB HIT):         0 
cpu0_L2C PAGE CROSSINGS (TLB MISS):         0 
cpu0_L2C AVERAGE MISS LATENCY: 76.7215 cycles
LLC TOTAL       ACCESS:    3020528  HIT:    1929122  MISS:    1091406  iACCESS:    1062822  iHIT:     721258  iMISS:     341564  dACCESS:    1786108  dHIT:    1147345  dMISS:     638763  itACCESS:      44396  itHIT:      15914  itMISS:      28482  dtACCESS:     127202  dtHIT:      44605  dtMISS:      82597
LLC LOAD         ACCESS:     696747  HIT:     460453  MISS:     236294  iACCESS:     237842  iHIT:     163677  iMISS:      74165  dACCESS:     458905  dHIT:     296776  dMISS:     162129  itACCESS:          0  itHIT:          0  itMISS:          0  dtACCESS:          0  dtHIT:          0  dtMISS:          0
LLC RFO          ACCESS:      87928  HIT:      47482  MISS:      40446  iACCESS:          0  iHIT:          0  iMISS:          0  dACCESS:      87928  dHIT:      47482  dMISS:      40446  itACCESS:          0  itHIT:          0  itMISS:          0  dtACCESS:          0  dtHIT:          0  dtMISS:          0
LLC PREFETCH     ACCESS:    1926023  HIT:    1228915  MISS:     697108  iACCESS:     824980  iHIT:     557581  iMISS:     267399  dACCESS:    1101043  dHIT:     671334  dMISS:     429709  itACCESS:          0  itHIT:          0  itMISS:          0  dtACCESS:          0  dtHIT:          0  dtMISS:          0
LLC WRITE        ACCESS:     138232  HIT:     131753  MISS:       6479  iACCESS:          0  iHIT:          0  iMISS:          0  dACCESS:     138232  dHIT:     131753  dMISS:       6479  itACCESS:          0  itHIT:          0  itMISS:          0  dtACCESS:          0  dtHIT:          0  dtMISS:          0
LLC TRANSLATION  ACCESS:     171598  HIT:      60519  MISS:     111079  iACCESS:          0  iHIT:          0  iMISS:          0  dACCESS:          0  dHIT:          0  dMISS:          0  itACCESS:      44396  itHIT:      15914  itMISS:      28482  dtACCESS:     127202  dtHIT:      44605  dtMISS:      82597
LLC PREFETCH  REQUESTED:          0  ISSUED:          0  CROSSED:          0  USEFUL:          0  USELESS:          0
LLC AVERAGE iMISS LATENCY: 46.4631 cycles
LLC AVERAGE dMISS LATENCY: 94.4319 cycles
LLC AVERAGE itMISS LATENCY: 4.50794 cycles
LLC AVERAGE dtMISS LATENCY: 13.6152 cycles
LLC PAGE CROSSINGS (TLB HIT):         0 
LLC PAGE CROSSINGS (TLB MISS):         0 
LLC AVERAGE MISS LATENCY: 159.018 cycles

PageTableWalker TOTAL       ACCESS:      85170  
PageTableWalker AVERAGE LATENCY: 5.25306 cycles
PageTableWalker TOTAL LATENCY: 447403 cycles

DRAM Statistics
Channel 0
 RQ ROW_BUFFER_HIT:     274196
  ROW_BUFFER_MISS:     810639
 AVG DBUS CONGESTED CYCLE:    3.61963
 WQ ROW_BUFFER_HIT:      21461
  ROW_BUFFER_MISS:      22399  FULL:          0

