last_page:0x200000000000000
VMEM_RES_CAP:0x100000
PAGE_SIZE:4096
LOG2_PAGE_SIZE:12
LOG2_PAGE_TABLE_SIZE:9
page_table_levels:5
WARNING: physical memory size is smaller than virtual memory size
FDiP enabled with aggresivity 16

*** ChampSim Multicore Out-of-Order Simulator ***

Warmup Instructions: 50000000
Simulation Instructions: 100000000
Number of CPUs: 1
Small page size: 4096
Large page size: 2097152

CPU 0 Bimodal branch predictor
Basic BTB sets: 1024 ways: 8 indirect buffer size: 4096 RAS size: 64
Instruction page size distrubution: 0
Loading instruction page size distribution from /home/bsc/bsc018186/scratch/itp_asplos25_AE/dump/srv44_ap.pdst
Data page size distrubution: 0
Loading data page size distribution from /home/bsc/bsc018186/scratch/itp_asplos25_AE/dump/srv44_ap.pdst
cpu0_L2C IP-based stride prefetcher
cpu0_L1D next line prefetcher
CHiRPing...
cpu0_L1I next line prefetcher
Off-chip DRAM Size: 4 GiB Channels: 1 Width: 64-bit Data Rate: 3200 MT/s
Heartbeat CPU 0 instructions: 10000001 cycles: 2500207 heartbeat IPC: 3.99967 cumulative IPC: 3.99967 (Simulation time: 0 hr 0 min 39 sec) 
Heartbeat CPU 0 instructions: 20000001 cycles: 5000279 heartbeat IPC: 3.99989 cumulative IPC: 3.99978 (Simulation time: 0 hr 1 min 19 sec) 
Heartbeat CPU 0 instructions: 30000001 cycles: 7500303 heartbeat IPC: 3.99997 cumulative IPC: 3.99984 (Simulation time: 0 hr 1 min 59 sec) 
Heartbeat CPU 0 instructions: 40000001 cycles: 10000340 heartbeat IPC: 3.99995 cumulative IPC: 3.99987 (Simulation time: 0 hr 2 min 40 sec) 
Heartbeat CPU 0 instructions: 50000003 cycles: 12500379 heartbeat IPC: 3.99994 cumulative IPC: 3.99988 (Simulation time: 0 hr 3 min 21 sec) 
Warmup finished CPU 0 instructions: 50000003 cycles: 12500380 cumulative IPC: 3.99988 (Simulation time: 0 hr 3 min 21 sec) 

Warmup complete CPU 0 instructions: 50000003 cycles: 12500380 (Simulation time: 0 hr 3 min 21 sec) 

Heartbeat CPU 0 instructions: 60000003 cycles: 29110998 heartbeat IPC: 0.602025 cumulative IPC: 0.602025 (Simulation time: 0 hr 4 min 28 sec) 
Heartbeat CPU 0 instructions: 70000000 cycles: 44698075 heartbeat IPC: 0.641557 cumulative IPC: 0.621163 (Simulation time: 0 hr 5 min 34 sec) 
Heartbeat CPU 0 instructions: 80000000 cycles: 60273356 heartbeat IPC: 0.642043 cumulative IPC: 0.627971 (Simulation time: 0 hr 6 min 42 sec) 
Heartbeat CPU 0 instructions: 90000002 cycles: 75376120 heartbeat IPC: 0.662131 cumulative IPC: 0.636176 (Simulation time: 0 hr 7 min 49 sec) 
Heartbeat CPU 0 instructions: 100000003 cycles: 90678385 heartbeat IPC: 0.653499 cumulative IPC: 0.639567 (Simulation time: 0 hr 8 min 56 sec) 
*** Reached end of trace: /gpfs/projects/bsc18/MN4/bsc18/romol/ChampSim/traces/qualcomm_srv/srv44_ap.champsimtrace.xz
Heartbeat CPU 0 instructions: 110000002 cycles: 106466735 heartbeat IPC: 0.633379 cumulative IPC: 0.638527 (Simulation time: 0 hr 10 min 5 sec) 
Heartbeat CPU 0 instructions: 120000000 cycles: 122926319 heartbeat IPC: 0.607549 cumulative IPC: 0.63391 (Simulation time: 0 hr 11 min 14 sec) 
Heartbeat CPU 0 instructions: 130000000 cycles: 137938217 heartbeat IPC: 0.666139 cumulative IPC: 0.637767 (Simulation time: 0 hr 12 min 21 sec) 
Heartbeat CPU 0 instructions: 140000001 cycles: 152575176 heartbeat IPC: 0.683203 cumulative IPC: 0.642514 (Simulation time: 0 hr 13 min 28 sec) 
Heartbeat CPU 0 instructions: 150000000 cycles: 168169473 heartbeat IPC: 0.641261 cumulative IPC: 0.642389 (Simulation time: 0 hr 14 min 36 sec) 
Simulation finished CPU 0 instructions: 100000000 cycles: 155669095 cumulative IPC: 0.642389 (Simulation time: 0 hr 14 min 36 sec) 

Simulation complete CPU 0 instructions: 100000000 cycles: 155669095 (Simulation time: 0 hr 14 min 36 sec) 


ChampSim completed all CPUs

Saving instructions large page distribution to /home/bsc/bsc018186/scratch/itp_asplos25_AE/dump/srv44_ap.pdst...
Saving data large page distribution to /home/bsc/bsc018186/scratch/itp_asplos25_AE/dump/srv44_ap.pdst...
=== Simulation ===
CPU 0 runs /gpfs/projects/bsc18/MN4/bsc18/romol/ChampSim/traces/qualcomm_srv/srv44_ap.champsimtrace.xz

Region of Interest Statistics

CPU 0 cumulative IPC: 0.642389 instructions: 100000000 cycles: 155669095
CPU 0 Branch Prediction Accuracy: 82.6949% MPKI: 31.0017 Average ROB Occupancy at Mispredict: 13.1214
Branch type MPKI
BRANCH_DIRECT_JUMP: 1.04266
BRANCH_INDIRECT: 15.9928
BRANCH_CONDITIONAL: 10.2125
BRANCH_DIRECT_CALL: 1.88785
BRANCH_INDIRECT_CALL: 0.515821
BRANCH_RETURN: 1.35008

Instructions large pages: 0
Instructions small pages: 962
Large page distribution for instructions: 0%

Data large pages: 0
Data small pages: 9382
Large page distribution for data: 0%

cpu0_L1I TOTAL       ACCESS:   35194775  HIT:   27333374  MISS:    7861401  iACCESS:   35194775  iHIT:   27333374  iMISS:    7861401  dACCESS:          0  dHIT:          0  dMISS:          0  itACCESS:          0  itHIT:          0  itMISS:          0  dtACCESS:          0  dtHIT:          0  dtMISS:          0
cpu0_L1I LOAD         ACCESS:   10330984  HIT:    8125243  MISS:    2205741  iACCESS:   10330984  iHIT:    8125243  iMISS:    2205741  dACCESS:          0  dHIT:          0  dMISS:          0  itACCESS:          0  itHIT:          0  itMISS:          0  dtACCESS:          0  dtHIT:          0  dtMISS:          0
cpu0_L1I RFO          ACCESS:          0  HIT:          0  MISS:          0  iACCESS:          0  iHIT:          0  iMISS:          0  dACCESS:          0  dHIT:          0  dMISS:          0  itACCESS:          0  itHIT:          0  itMISS:          0  dtACCESS:          0  dtHIT:          0  dtMISS:          0
cpu0_L1I PREFETCH     ACCESS:   24863791  HIT:   19208131  MISS:    5655660  iACCESS:   24863791  iHIT:   19208131  iMISS:    5655660  dACCESS:          0  dHIT:          0  dMISS:          0  itACCESS:          0  itHIT:          0  itMISS:          0  dtACCESS:          0  dtHIT:          0  dtMISS:          0
cpu0_L1I WRITE        ACCESS:          0  HIT:          0  MISS:          0  iACCESS:          0  iHIT:          0  iMISS:          0  dACCESS:          0  dHIT:          0  dMISS:          0  itACCESS:          0  itHIT:          0  itMISS:          0  dtACCESS:          0  dtHIT:          0  dtMISS:          0
cpu0_L1I TRANSLATION  ACCESS:          0  HIT:          0  MISS:          0  iACCESS:          0  iHIT:          0  iMISS:          0  dACCESS:          0  dHIT:          0  dMISS:          0  itACCESS:          0  itHIT:          0  itMISS:          0  dtACCESS:          0  dtHIT:          0  dtMISS:          0
cpu0_L1I PREFETCH  REQUESTED:   27404279  ISSUED:   27404279  CROSSED:          0  USEFUL:    1933695  USELESS:     627849
cpu0_L1I AVERAGE iMISS LATENCY: 12.9216 cycles
cpu0_L1I AVERAGE dMISS LATENCY: 0 cycles
cpu0_L1I AVERAGE itMISS LATENCY: 0 cycles
cpu0_L1I AVERAGE dtMISS LATENCY: 0 cycles
cpu0_L1I PAGE CROSSINGS (TLB HIT):         0 
cpu0_L1I PAGE CROSSINGS (TLB MISS):         0 
cpu0_L1I AVERAGE MISS LATENCY: 12.9216 cycles
cpu0_ITLB TOTAL       ACCESS:   29386704  HIT:   27439620  MISS:    1947084  iACCESS:   29386704  iHIT:   27439620  iMISS:    1947084  dACCESS:          0  dHIT:          0  dMISS:          0  itACCESS:          0  itHIT:          0  itMISS:          0  dtACCESS:          0  dtHIT:          0  dtMISS:          0
cpu0_ITLB LOAD         ACCESS:   29386704  HIT:   27439620  MISS:    1947084  iACCESS:   29386704  iHIT:   27439620  iMISS:    1947084  dACCESS:          0  dHIT:          0  dMISS:          0  itACCESS:          0  itHIT:          0  itMISS:          0  dtACCESS:          0  dtHIT:          0  dtMISS:          0
cpu0_ITLB RFO          ACCESS:          0  HIT:          0  MISS:          0  iACCESS:          0  iHIT:          0  iMISS:          0  dACCESS:          0  dHIT:          0  dMISS:          0  itACCESS:          0  itHIT:          0  itMISS:          0  dtACCESS:          0  dtHIT:          0  dtMISS:          0
cpu0_ITLB PREFETCH     ACCESS:          0  HIT:          0  MISS:          0  iACCESS:          0  iHIT:          0  iMISS:          0  dACCESS:          0  dHIT:          0  dMISS:          0  itACCESS:          0  itHIT:          0  itMISS:          0  dtACCESS:          0  dtHIT:          0  dtMISS:          0
cpu0_ITLB WRITE        ACCESS:          0  HIT:          0  MISS:          0  iACCESS:          0  iHIT:          0  iMISS:          0  dACCESS:          0  dHIT:          0  dMISS:          0  itACCESS:          0  itHIT:          0  itMISS:          0  dtACCESS:          0  dtHIT:          0  dtMISS:          0
cpu0_ITLB TRANSLATION  ACCESS:          0  HIT:          0  MISS:          0  iACCESS:          0  iHIT:          0  iMISS:          0  dACCESS:          0  dHIT:          0  dMISS:          0  itACCESS:          0  itHIT:          0  itMISS:          0  dtACCESS:          0  dtHIT:          0  dtMISS:          0
cpu0_ITLB PREFETCH  REQUESTED:          0  ISSUED:          0  CROSSED:          0  USEFUL:     316541  USELESS:      64453
cpu0_ITLB AVERAGE iMISS LATENCY: 5.25867 cycles
cpu0_ITLB AVERAGE dMISS LATENCY: 0 cycles
cpu0_ITLB AVERAGE itMISS LATENCY: 0 cycles
cpu0_ITLB AVERAGE dtMISS LATENCY: 0 cycles
cpu0_ITLB PAGE CROSSINGS (TLB HIT):         0 
cpu0_ITLB PAGE CROSSINGS (TLB MISS):         0 
cpu0_ITLB AVERAGE MISS LATENCY: 5.25867 cycles
cpu0_DTLB TOTAL       ACCESS:   27830768  HIT:   26035562  MISS:    1795206  iACCESS:          0  iHIT:          0  iMISS:          0  dACCESS:   27830768  dHIT:   26035562  dMISS:    1795206  itACCESS:          0  itHIT:          0  itMISS:          0  dtACCESS:          0  dtHIT:          0  dtMISS:          0
cpu0_DTLB LOAD         ACCESS:   27830768  HIT:   26035562  MISS:    1795206  iACCESS:          0  iHIT:          0  iMISS:          0  dACCESS:   27830768  dHIT:   26035562  dMISS:    1795206  itACCESS:          0  itHIT:          0  itMISS:          0  dtACCESS:          0  dtHIT:          0  dtMISS:          0
cpu0_DTLB RFO          ACCESS:          0  HIT:          0  MISS:          0  iACCESS:          0  iHIT:          0  iMISS:          0  dACCESS:          0  dHIT:          0  dMISS:          0  itACCESS:          0  itHIT:          0  itMISS:          0  dtACCESS:          0  dtHIT:          0  dtMISS:          0
cpu0_DTLB PREFETCH     ACCESS:          0  HIT:          0  MISS:          0  iACCESS:          0  iHIT:          0  iMISS:          0  dACCESS:          0  dHIT:          0  dMISS:          0  itACCESS:          0  itHIT:          0  itMISS:          0  dtACCESS:          0  dtHIT:          0  dtMISS:          0
cpu0_DTLB WRITE        ACCESS:          0  HIT:          0  MISS:          0  iACCESS:          0  iHIT:          0  iMISS:          0  dACCESS:          0  dHIT:          0  dMISS:          0  itACCESS:          0  itHIT:          0  itMISS:          0  dtACCESS:          0  dtHIT:          0  dtMISS:          0
cpu0_DTLB TRANSLATION  ACCESS:          0  HIT:          0  MISS:          0  iACCESS:          0  iHIT:          0  iMISS:          0  dACCESS:          0  dHIT:          0  dMISS:          0  itACCESS:          0  itHIT:          0  itMISS:          0  dtACCESS:          0  dtHIT:          0  dtMISS:          0
cpu0_DTLB PREFETCH  REQUESTED:          0  ISSUED:          0  CROSSED:          0  USEFUL:          0  USELESS:          0
cpu0_DTLB AVERAGE iMISS LATENCY: 0 cycles
cpu0_DTLB AVERAGE dMISS LATENCY: 16.4572 cycles
cpu0_DTLB AVERAGE itMISS LATENCY: 0 cycles
cpu0_DTLB AVERAGE dtMISS LATENCY: 0 cycles
cpu0_DTLB PAGE CROSSINGS (TLB HIT):         0 
cpu0_DTLB PAGE CROSSINGS (TLB MISS):         0 
cpu0_DTLB AVERAGE MISS LATENCY: 16.4572 cycles
cpu0_STLB TOTAL       ACCESS:    1465221  HIT:    1295870  MISS:     169351  iACCESS:     381000  iHIT:     322060  iMISS:      58940  dACCESS:    1084221  dHIT:     973810  dMISS:     110411  itACCESS:          0  itHIT:          0  itMISS:          0  dtACCESS:          0  dtHIT:          0  dtMISS:          0
cpu0_STLB LOAD         ACCESS:    1465221  HIT:    1295870  MISS:     169351  iACCESS:     381000  iHIT:     322060  iMISS:      58940  dACCESS:    1084221  dHIT:     973810  dMISS:     110411  itACCESS:          0  itHIT:          0  itMISS:          0  dtACCESS:          0  dtHIT:          0  dtMISS:          0
cpu0_STLB RFO          ACCESS:          0  HIT:          0  MISS:          0  iACCESS:          0  iHIT:          0  iMISS:          0  dACCESS:          0  dHIT:          0  dMISS:          0  itACCESS:          0  itHIT:          0  itMISS:          0  dtACCESS:          0  dtHIT:          0  dtMISS:          0
cpu0_STLB PREFETCH     ACCESS:          0  HIT:          0  MISS:          0  iACCESS:          0  iHIT:          0  iMISS:          0  dACCESS:          0  dHIT:          0  dMISS:          0  itACCESS:          0  itHIT:          0  itMISS:          0  dtACCESS:          0  dtHIT:          0  dtMISS:          0
cpu0_STLB WRITE        ACCESS:          0  HIT:          0  MISS:          0  iACCESS:          0  iHIT:          0  iMISS:          0  dACCESS:          0  dHIT:          0  dMISS:          0  itACCESS:          0  itHIT:          0  itMISS:          0  dtACCESS:          0  dtHIT:          0  dtMISS:          0
cpu0_STLB TRANSLATION  ACCESS:          0  HIT:          0  MISS:          0  iACCESS:          0  iHIT:          0  iMISS:          0  dACCESS:          0  dHIT:          0  dMISS:          0  itACCESS:          0  itHIT:          0  itMISS:          0  dtACCESS:          0  dtHIT:          0  dtMISS:          0
cpu0_STLB PREFETCH  REQUESTED:          0  ISSUED:          0  CROSSED:          0  USEFUL:          0  USELESS:          0
cpu0_STLB AVERAGE iMISS LATENCY: 42.6781 cycles
cpu0_STLB AVERAGE dMISS LATENCY: 123.35 cycles
cpu0_STLB AVERAGE itMISS LATENCY: 0 cycles
cpu0_STLB AVERAGE dtMISS LATENCY: 0 cycles
cpu0_STLB PAGE CROSSINGS (TLB HIT):         0 
cpu0_STLB PAGE CROSSINGS (TLB MISS):         0 
cpu0_STLB AVERAGE MISS LATENCY: 166.028 cycles
cpu0_L1D TOTAL       ACCESS:   41522531  HIT:   38104103  MISS:    3418428  iACCESS:          0  iHIT:          0  iMISS:          0  dACCESS:   41294221  dHIT:   38084050  dMISS:    3210171  itACCESS:      63923  itHIT:       9261  itMISS:      54662  dtACCESS:     164387  dtHIT:      10792  dtMISS:     153595
cpu0_L1D LOAD         ACCESS:   19028474  HIT:   17566520  MISS:    1461954  iACCESS:          0  iHIT:          0  iMISS:          0  dACCESS:   19028474  dHIT:   17566520  dMISS:    1461954  itACCESS:          0  itHIT:          0  itMISS:          0  dtACCESS:          0  dtHIT:          0  dtMISS:          0
cpu0_L1D RFO          ACCESS:          0  HIT:          0  MISS:          0  iACCESS:          0  iHIT:          0  iMISS:          0  dACCESS:          0  dHIT:          0  dMISS:          0  itACCESS:          0  itHIT:          0  itMISS:          0  dtACCESS:          0  dtHIT:          0  dtMISS:          0
cpu0_L1D PREFETCH     ACCESS:   12076879  HIT:   10762985  MISS:    1313894  iACCESS:          0  iHIT:          0  iMISS:          0  dACCESS:   12076879  dHIT:   10762985  dMISS:    1313894  itACCESS:          0  itHIT:          0  itMISS:          0  dtACCESS:          0  dtHIT:          0  dtMISS:          0
cpu0_L1D WRITE        ACCESS:   10188868  HIT:    9754545  MISS:     434323  iACCESS:          0  iHIT:          0  iMISS:          0  dACCESS:   10188868  dHIT:    9754545  dMISS:     434323  itACCESS:          0  itHIT:          0  itMISS:          0  dtACCESS:          0  dtHIT:          0  dtMISS:          0
cpu0_L1D TRANSLATION  ACCESS:     228310  HIT:      20053  MISS:     208257  iACCESS:          0  iHIT:          0  iMISS:          0  dACCESS:          0  dHIT:          0  dMISS:          0  itACCESS:      63923  itHIT:       9261  itMISS:      54662  dtACCESS:     164387  dtHIT:      10792  dtMISS:     153595
cpu0_L1D PREFETCH  REQUESTED:   19028474  ISSUED:   16868587  CROSSED:          0  USEFUL:     307496  USELESS:     699199
cpu0_L1D AVERAGE iMISS LATENCY: 0 cycles
cpu0_L1D AVERAGE dMISS LATENCY: 33.639 cycles
cpu0_L1D AVERAGE itMISS LATENCY: 1.96689 cycles
cpu0_L1D AVERAGE dtMISS LATENCY: 5.42954 cycles
cpu0_L1D PAGE CROSSINGS (TLB HIT):         0 
cpu0_L1D PAGE CROSSINGS (TLB MISS):         0 
cpu0_L1D AVERAGE MISS LATENCY: 41.0354 cycles
cpu0_L2C TOTAL       ACCESS:    7005199  HIT:    4041106  MISS:    2964093  iACCESS:    3309811  iHIT:    2206036  iMISS:    1103775  dACCESS:    3495231  dHIT:    1808059  dMISS:    1687172  itACCESS:      54662  itHIT:       9499  itMISS:      45163  dtACCESS:     145495  dtHIT:      17512  dtMISS:     127983
cpu0_L2C LOAD         ACCESS:    1714983  HIT:    1032817  MISS:     682166  iACCESS:     788449  iHIT:     554156  iMISS:     234293  dACCESS:     926534  dHIT:     478661  dMISS:     447873  itACCESS:          0  itHIT:          0  itMISS:          0  dtACCESS:          0  dtHIT:          0  dtMISS:          0
cpu0_L2C RFO          ACCESS:     158614  HIT:      71966  MISS:      86648  iACCESS:          0  iHIT:          0  iMISS:          0  dACCESS:     158614  dHIT:      71966  dMISS:      86648  itACCESS:          0  itHIT:          0  itMISS:          0  dtACCESS:          0  dtHIT:          0  dtMISS:          0
cpu0_L2C PREFETCH     ACCESS:    4649570  HIT:    2628988  MISS:    2020582  iACCESS:    2521362  iHIT:    1651880  iMISS:     869482  dACCESS:    2128208  dHIT:     977108  dMISS:    1151100  itACCESS:          0  itHIT:          0  itMISS:          0  dtACCESS:          0  dtHIT:          0  dtMISS:          0
cpu0_L2C WRITE        ACCESS:     281875  HIT:     280324  MISS:       1551  iACCESS:          0  iHIT:          0  iMISS:          0  dACCESS:     281875  dHIT:     280324  dMISS:       1551  itACCESS:          0  itHIT:          0  itMISS:          0  dtACCESS:          0  dtHIT:          0  dtMISS:          0
cpu0_L2C TRANSLATION  ACCESS:     200157  HIT:      27011  MISS:     173146  iACCESS:          0  iHIT:          0  iMISS:          0  dACCESS:          0  dHIT:          0  dMISS:          0  itACCESS:      54662  itHIT:       9499  itMISS:      45163  dtACCESS:     145495  dtHIT:      17512  dtMISS:     127983
cpu0_L2C PREFETCH  REQUESTED:    1382273  ISSUED:    1382273  CROSSED:          0  USEFUL:     334390  USELESS:     236987
cpu0_L2C AVERAGE iMISS LATENCY: 24.1098 cycles
cpu0_L2C AVERAGE dMISS LATENCY: 45.9213 cycles
cpu0_L2C AVERAGE itMISS LATENCY: 2.08662 cycles
cpu0_L2C AVERAGE dtMISS LATENCY: 5.77298 cycles
cpu0_L2C PAGE CROSSINGS (TLB HIT):         0 
cpu0_L2C PAGE CROSSINGS (TLB MISS):         0 
cpu0_L2C AVERAGE MISS LATENCY: 77.8907 cycles
LLC TOTAL       ACCESS:    2985614  HIT:    1858603  MISS:    1127011  iACCESS:    1046459  iHIT:     695452  iMISS:     351007  dACCESS:    1766009  dHIT:    1102868  dMISS:     663141  itACCESS:      45163  itHIT:      14369  itMISS:      30794  dtACCESS:     127983  dtHIT:      45914  dtMISS:      82069
LLC LOAD         ACCESS:     680663  HIT:     440968  MISS:     239695  iACCESS:     232997  iHIT:     158112  iMISS:      74885  dACCESS:     447666  dHIT:     282856  dMISS:     164810  itACCESS:          0  itHIT:          0  itMISS:          0  dtACCESS:          0  dtHIT:          0  dtMISS:          0
LLC RFO          ACCESS:      86640  HIT:      44262  MISS:      42378  iACCESS:          0  iHIT:          0  iMISS:          0  dACCESS:      86640  dHIT:      44262  dMISS:      42378  itACCESS:          0  itHIT:          0  itMISS:          0  dtACCESS:          0  dtHIT:          0  dtMISS:          0
LLC PREFETCH     ACCESS:    1910884  HIT:    1185912  MISS:     724972  iACCESS:     813462  iHIT:     537340  iMISS:     276122  dACCESS:    1097422  dHIT:     648572  dMISS:     448850  itACCESS:          0  itHIT:          0  itMISS:          0  dtACCESS:          0  dtHIT:          0  dtMISS:          0
LLC WRITE        ACCESS:     134281  HIT:     127178  MISS:       7103  iACCESS:          0  iHIT:          0  iMISS:          0  dACCESS:     134281  dHIT:     127178  dMISS:       7103  itACCESS:          0  itHIT:          0  itMISS:          0  dtACCESS:          0  dtHIT:          0  dtMISS:          0
LLC TRANSLATION  ACCESS:     173146  HIT:      60283  MISS:     112863  iACCESS:          0  iHIT:          0  iMISS:          0  dACCESS:          0  dHIT:          0  dMISS:          0  itACCESS:      45163  itHIT:      14369  itMISS:      30794  dtACCESS:     127983  dtHIT:      45914  dtMISS:      82069
LLC PREFETCH  REQUESTED:          0  ISSUED:          0  CROSSED:          0  USEFUL:          0  USELESS:          0
LLC AVERAGE iMISS LATENCY: 45.3568 cycles
LLC AVERAGE dMISS LATENCY: 92.7252 cycles
LLC AVERAGE itMISS LATENCY: 4.70147 cycles
LLC AVERAGE dtMISS LATENCY: 12.9593 cycles
LLC PAGE CROSSINGS (TLB HIT):         0 
LLC PAGE CROSSINGS (TLB MISS):         0 
LLC AVERAGE MISS LATENCY: 155.743 cycles

PageTableWalker TOTAL       ACCESS:      84486  
PageTableWalker AVERAGE LATENCY: 5.28206 cycles
PageTableWalker TOTAL LATENCY: 446260 cycles

DRAM Statistics
Channel 0
 RQ ROW_BUFFER_HIT:     314015
  ROW_BUFFER_MISS:     805832
 AVG DBUS CONGESTED CYCLE:    3.61625
 WQ ROW_BUFFER_HIT:      22297
  ROW_BUFFER_MISS:      20683  FULL:          0

