last_page:0x200000000000000
VMEM_RES_CAP:0x100000
PAGE_SIZE:4096
LOG2_PAGE_SIZE:12
LOG2_PAGE_TABLE_SIZE:9
page_table_levels:5
WARNING: physical memory size is smaller than virtual memory size
FDiP enabled with aggresivity 16

*** ChampSim Multicore Out-of-Order Simulator ***

Warmup Instructions: 50000000
Simulation Instructions: 100000000
Number of CPUs: 1
Small page size: 4096
Large page size: 2097152

CPU 0 Bimodal branch predictor
Basic BTB sets: 1024 ways: 8 indirect buffer size: 4096 RAS size: 64
Instruction page size distrubution: 0
Loading instruction page size distribution from /home/bsc/bsc018186/scratch/itp_asplos25_AE/dump/srv489_ap.pdst
Data page size distrubution: 0
Loading data page size distribution from /home/bsc/bsc018186/scratch/itp_asplos25_AE/dump/srv489_ap.pdst
cpu0_L2C IP-based stride prefetcher
cpu0_L2C is using PTP replacement policy:
	TLB_STRESS_THRESHOLD:0
	PTE_EVICTION_RATIO:0
cpu0_L1D next line prefetcher
cpu0_STLB using iTP with max lru@8
cpu0_STLB using iTP with instr@0 and data@2
Init sat counter with 3 bits (max:50).
cpu0_L1I next line prefetcher
Off-chip DRAM Size: 4 GiB Channels: 1 Width: 64-bit Data Rate: 3200 MT/s
Heartbeat CPU 0 instructions: 10000000 cycles: 2500212 heartbeat IPC: 3.99967 cumulative IPC: 3.99967 (Simulation time: 0 hr 0 min 40 sec) 
Heartbeat CPU 0 instructions: 20000001 cycles: 5000448 heartbeat IPC: 3.99963 cumulative IPC: 3.99965 (Simulation time: 0 hr 1 min 20 sec) 
Heartbeat CPU 0 instructions: 30000003 cycles: 7500594 heartbeat IPC: 3.99977 cumulative IPC: 3.99969 (Simulation time: 0 hr 2 min 0 sec) 
Heartbeat CPU 0 instructions: 40000002 cycles: 10000653 heartbeat IPC: 3.99991 cumulative IPC: 3.99974 (Simulation time: 0 hr 2 min 41 sec) 
Heartbeat CPU 0 instructions: 50000001 cycles: 12500694 heartbeat IPC: 3.99994 cumulative IPC: 3.99978 (Simulation time: 0 hr 3 min 21 sec) 
Warmup finished CPU 0 instructions: 50000001 cycles: 12500695 cumulative IPC: 3.99978 (Simulation time: 0 hr 3 min 21 sec) 

Warmup complete CPU 0 instructions: 50000001 cycles: 12500695 (Simulation time: 0 hr 3 min 21 sec) 

Heartbeat CPU 0 instructions: 60000001 cycles: 26701637 heartbeat IPC: 0.704179 cumulative IPC: 0.704179 (Simulation time: 0 hr 4 min 24 sec) 
Heartbeat CPU 0 instructions: 70000000 cycles: 40793283 heartbeat IPC: 0.709641 cumulative IPC: 0.706899 (Simulation time: 0 hr 5 min 27 sec) 
Heartbeat CPU 0 instructions: 80000001 cycles: 54754293 heartbeat IPC: 0.716281 cumulative IPC: 0.709999 (Simulation time: 0 hr 6 min 30 sec) 
Heartbeat CPU 0 instructions: 90000003 cycles: 68197147 heartbeat IPC: 0.74389 cumulative IPC: 0.718179 (Simulation time: 0 hr 7 min 33 sec) 
Heartbeat CPU 0 instructions: 100000000 cycles: 82296306 heartbeat IPC: 0.709262 cumulative IPC: 0.716378 (Simulation time: 0 hr 8 min 37 sec) 
*** Reached end of trace: /gpfs/projects/bsc18/MN4/bsc18/romol/ChampSim/traces/qualcomm_srv/srv489_ap.champsimtrace.xz
Heartbeat CPU 0 instructions: 110000004 cycles: 95858221 heartbeat IPC: 0.73736 cumulative IPC: 0.719792 (Simulation time: 0 hr 9 min 40 sec) 
Heartbeat CPU 0 instructions: 120000002 cycles: 108931680 heartbeat IPC: 0.764909 cumulative IPC: 0.725908 (Simulation time: 0 hr 10 min 48 sec) 
Heartbeat CPU 0 instructions: 130000000 cycles: 122796747 heartbeat IPC: 0.721237 cumulative IPC: 0.725321 (Simulation time: 0 hr 11 min 57 sec) 
Heartbeat CPU 0 instructions: 140000000 cycles: 135923241 heartbeat IPC: 0.761819 cumulative IPC: 0.729203 (Simulation time: 0 hr 13 min 5 sec) 
Heartbeat CPU 0 instructions: 150000000 cycles: 149970328 heartbeat IPC: 0.711892 cumulative IPC: 0.727434 (Simulation time: 0 hr 14 min 9 sec) 
Simulation finished CPU 0 instructions: 100000002 cycles: 137469635 cumulative IPC: 0.727434 (Simulation time: 0 hr 14 min 9 sec) 

Simulation complete CPU 0 instructions: 100000002 cycles: 137469635 (Simulation time: 0 hr 14 min 9 sec) 


ChampSim completed all CPUs

Saving instructions large page distribution to /home/bsc/bsc018186/scratch/itp_asplos25_AE/dump/srv489_ap.pdst...
Saving data large page distribution to /home/bsc/bsc018186/scratch/itp_asplos25_AE/dump/srv489_ap.pdst...
=== Simulation ===
CPU 0 runs /gpfs/projects/bsc18/MN4/bsc18/romol/ChampSim/traces/qualcomm_srv/srv489_ap.champsimtrace.xz

Region of Interest Statistics

CPU 0 cumulative IPC: 0.727434 instructions: 100000002 cycles: 137469635
CPU 0 Branch Prediction Accuracy: 83.562% MPKI: 29.4231 Average ROB Occupancy at Mispredict: 12.481
Branch type MPKI
BRANCH_DIRECT_JUMP: 1.01148
BRANCH_INDIRECT: 15.1795
BRANCH_CONDITIONAL: 9.58188
BRANCH_DIRECT_CALL: 1.824
BRANCH_INDIRECT_CALL: 0.50349
BRANCH_RETURN: 1.32271

Instructions large pages: 0
Instructions small pages: 10830
Large page distribution for instructions: 0%

Data large pages: 0
Data small pages: 9820
Large page distribution for data: 0%

cpu0_L1I TOTAL       ACCESS:   35245892  HIT:   26896788  MISS:    8349104  iACCESS:   35245892  iHIT:   26896788  iMISS:    8349104  dACCESS:          0  dHIT:          0  dMISS:          0  itACCESS:          0  itHIT:          0  itMISS:          0  dtACCESS:          0  dtHIT:          0  dtMISS:          0
cpu0_L1I LOAD         ACCESS:   10346655  HIT:    8005677  MISS:    2340978  iACCESS:   10346655  iHIT:    8005677  iMISS:    2340978  dACCESS:          0  dHIT:          0  dMISS:          0  itACCESS:          0  itHIT:          0  itMISS:          0  dtACCESS:          0  dtHIT:          0  dtMISS:          0
cpu0_L1I RFO          ACCESS:          0  HIT:          0  MISS:          0  iACCESS:          0  iHIT:          0  iMISS:          0  dACCESS:          0  dHIT:          0  dMISS:          0  itACCESS:          0  itHIT:          0  itMISS:          0  dtACCESS:          0  dtHIT:          0  dtMISS:          0
cpu0_L1I PREFETCH     ACCESS:   24899237  HIT:   18891111  MISS:    6008126  iACCESS:   24899237  iHIT:   18891111  iMISS:    6008126  dACCESS:          0  dHIT:          0  dMISS:          0  itACCESS:          0  itHIT:          0  itMISS:          0  dtACCESS:          0  dtHIT:          0  dtMISS:          0
cpu0_L1I WRITE        ACCESS:          0  HIT:          0  MISS:          0  iACCESS:          0  iHIT:          0  iMISS:          0  dACCESS:          0  dHIT:          0  dMISS:          0  itACCESS:          0  itHIT:          0  itMISS:          0  dtACCESS:          0  dtHIT:          0  dtMISS:          0
cpu0_L1I TRANSLATION  ACCESS:          0  HIT:          0  MISS:          0  iACCESS:          0  iHIT:          0  iMISS:          0  dACCESS:          0  dHIT:          0  dMISS:          0  itACCESS:          0  itHIT:          0  itMISS:          0  dtACCESS:          0  dtHIT:          0  dtMISS:          0
cpu0_L1I PREFETCH  REQUESTED:   27245182  ISSUED:   27242425  CROSSED:          0  USEFUL:    1887655  USELESS:     624467
cpu0_L1I AVERAGE iMISS LATENCY: 13.5712 cycles
cpu0_L1I AVERAGE dMISS LATENCY: 0 cycles
cpu0_L1I AVERAGE itMISS LATENCY: 0 cycles
cpu0_L1I AVERAGE dtMISS LATENCY: 0 cycles
cpu0_L1I PAGE CROSSINGS (TLB HIT):         0 
cpu0_L1I PAGE CROSSINGS (TLB MISS):         0 
cpu0_L1I AVERAGE MISS LATENCY: 13.5712 cycles
cpu0_ITLB TOTAL       ACCESS:   29106443  HIT:   27147164  MISS:    1959279  iACCESS:   29106443  iHIT:   27147164  iMISS:    1959279  dACCESS:          0  dHIT:          0  dMISS:          0  itACCESS:          0  itHIT:          0  itMISS:          0  dtACCESS:          0  dtHIT:          0  dtMISS:          0
cpu0_ITLB LOAD         ACCESS:   29106443  HIT:   27147164  MISS:    1959279  iACCESS:   29106443  iHIT:   27147164  iMISS:    1959279  dACCESS:          0  dHIT:          0  dMISS:          0  itACCESS:          0  itHIT:          0  itMISS:          0  dtACCESS:          0  dtHIT:          0  dtMISS:          0
cpu0_ITLB RFO          ACCESS:          0  HIT:          0  MISS:          0  iACCESS:          0  iHIT:          0  iMISS:          0  dACCESS:          0  dHIT:          0  dMISS:          0  itACCESS:          0  itHIT:          0  itMISS:          0  dtACCESS:          0  dtHIT:          0  dtMISS:          0
cpu0_ITLB PREFETCH     ACCESS:          0  HIT:          0  MISS:          0  iACCESS:          0  iHIT:          0  iMISS:          0  dACCESS:          0  dHIT:          0  dMISS:          0  itACCESS:          0  itHIT:          0  itMISS:          0  dtACCESS:          0  dtHIT:          0  dtMISS:          0
cpu0_ITLB WRITE        ACCESS:          0  HIT:          0  MISS:          0  iACCESS:          0  iHIT:          0  iMISS:          0  dACCESS:          0  dHIT:          0  dMISS:          0  itACCESS:          0  itHIT:          0  itMISS:          0  dtACCESS:          0  dtHIT:          0  dtMISS:          0
cpu0_ITLB TRANSLATION  ACCESS:          0  HIT:          0  MISS:          0  iACCESS:          0  iHIT:          0  iMISS:          0  dACCESS:          0  dHIT:          0  dMISS:          0  itACCESS:          0  itHIT:          0  itMISS:          0  dtACCESS:          0  dtHIT:          0  dtMISS:          0
cpu0_ITLB PREFETCH  REQUESTED:          0  ISSUED:          0  CROSSED:          0  USEFUL:     320669  USELESS:      65772
cpu0_ITLB AVERAGE iMISS LATENCY: 1.97306 cycles
cpu0_ITLB AVERAGE dMISS LATENCY: 0 cycles
cpu0_ITLB AVERAGE itMISS LATENCY: 0 cycles
cpu0_ITLB AVERAGE dtMISS LATENCY: 0 cycles
cpu0_ITLB PAGE CROSSINGS (TLB HIT):         0 
cpu0_ITLB PAGE CROSSINGS (TLB MISS):         0 
cpu0_ITLB AVERAGE MISS LATENCY: 1.97306 cycles
cpu0_DTLB TOTAL       ACCESS:   27677435  HIT:   25860204  MISS:    1817231  iACCESS:          0  iHIT:          0  iMISS:          0  dACCESS:   27677435  dHIT:   25860204  dMISS:    1817231  itACCESS:          0  itHIT:          0  itMISS:          0  dtACCESS:          0  dtHIT:          0  dtMISS:          0
cpu0_DTLB LOAD         ACCESS:   27677435  HIT:   25860204  MISS:    1817231  iACCESS:          0  iHIT:          0  iMISS:          0  dACCESS:   27677435  dHIT:   25860204  dMISS:    1817231  itACCESS:          0  itHIT:          0  itMISS:          0  dtACCESS:          0  dtHIT:          0  dtMISS:          0
cpu0_DTLB RFO          ACCESS:          0  HIT:          0  MISS:          0  iACCESS:          0  iHIT:          0  iMISS:          0  dACCESS:          0  dHIT:          0  dMISS:          0  itACCESS:          0  itHIT:          0  itMISS:          0  dtACCESS:          0  dtHIT:          0  dtMISS:          0
cpu0_DTLB PREFETCH     ACCESS:          0  HIT:          0  MISS:          0  iACCESS:          0  iHIT:          0  iMISS:          0  dACCESS:          0  dHIT:          0  dMISS:          0  itACCESS:          0  itHIT:          0  itMISS:          0  dtACCESS:          0  dtHIT:          0  dtMISS:          0
cpu0_DTLB WRITE        ACCESS:          0  HIT:          0  MISS:          0  iACCESS:          0  iHIT:          0  iMISS:          0  dACCESS:          0  dHIT:          0  dMISS:          0  itACCESS:          0  itHIT:          0  itMISS:          0  dtACCESS:          0  dtHIT:          0  dtMISS:          0
cpu0_DTLB TRANSLATION  ACCESS:          0  HIT:          0  MISS:          0  iACCESS:          0  iHIT:          0  iMISS:          0  dACCESS:          0  dHIT:          0  dMISS:          0  itACCESS:          0  itHIT:          0  itMISS:          0  dtACCESS:          0  dtHIT:          0  dtMISS:          0
cpu0_DTLB PREFETCH  REQUESTED:          0  ISSUED:          0  CROSSED:          0  USEFUL:          0  USELESS:          0
cpu0_DTLB AVERAGE iMISS LATENCY: 0 cycles
cpu0_DTLB AVERAGE dMISS LATENCY: 10.4037 cycles
cpu0_DTLB AVERAGE itMISS LATENCY: 0 cycles
cpu0_DTLB AVERAGE dtMISS LATENCY: 0 cycles
cpu0_DTLB PAGE CROSSINGS (TLB HIT):         0 
cpu0_DTLB PAGE CROSSINGS (TLB MISS):         0 
cpu0_DTLB AVERAGE MISS LATENCY: 10.4037 cycles
cpu0_STLB TOTAL       ACCESS:    1501187  HIT:    1357858  MISS:     143329  iACCESS:     386450  iHIT:     377779  iMISS:       8671  dACCESS:    1114737  dHIT:     980079  dMISS:     134658  itACCESS:          0  itHIT:          0  itMISS:          0  dtACCESS:          0  dtHIT:          0  dtMISS:          0
cpu0_STLB LOAD         ACCESS:    1501187  HIT:    1357858  MISS:     143329  iACCESS:     386450  iHIT:     377779  iMISS:       8671  dACCESS:    1114737  dHIT:     980079  dMISS:     134658  itACCESS:          0  itHIT:          0  itMISS:          0  dtACCESS:          0  dtHIT:          0  dtMISS:          0
cpu0_STLB RFO          ACCESS:          0  HIT:          0  MISS:          0  iACCESS:          0  iHIT:          0  iMISS:          0  dACCESS:          0  dHIT:          0  dMISS:          0  itACCESS:          0  itHIT:          0  itMISS:          0  dtACCESS:          0  dtHIT:          0  dtMISS:          0
cpu0_STLB PREFETCH     ACCESS:          0  HIT:          0  MISS:          0  iACCESS:          0  iHIT:          0  iMISS:          0  dACCESS:          0  dHIT:          0  dMISS:          0  itACCESS:          0  itHIT:          0  itMISS:          0  dtACCESS:          0  dtHIT:          0  dtMISS:          0
cpu0_STLB WRITE        ACCESS:          0  HIT:          0  MISS:          0  iACCESS:          0  iHIT:          0  iMISS:          0  dACCESS:          0  dHIT:          0  dMISS:          0  itACCESS:          0  itHIT:          0  itMISS:          0  dtACCESS:          0  dtHIT:          0  dtMISS:          0
cpu0_STLB TRANSLATION  ACCESS:          0  HIT:          0  MISS:          0  iACCESS:          0  iHIT:          0  iMISS:          0  dACCESS:          0  dHIT:          0  dMISS:          0  itACCESS:          0  itHIT:          0  itMISS:          0  dtACCESS:          0  dtHIT:          0  dtMISS:          0
cpu0_STLB PREFETCH  REQUESTED:          0  ISSUED:          0  CROSSED:          0  USEFUL:          0  USELESS:          0
cpu0_STLB AVERAGE iMISS LATENCY: 6.05992 cycles
cpu0_STLB AVERAGE dMISS LATENCY: 69.6999 cycles
cpu0_STLB AVERAGE itMISS LATENCY: 0 cycles
cpu0_STLB AVERAGE dtMISS LATENCY: 0 cycles
cpu0_STLB PAGE CROSSINGS (TLB HIT):         0 
cpu0_STLB PAGE CROSSINGS (TLB MISS):         0 
cpu0_STLB AVERAGE MISS LATENCY: 75.7598 cycles
cpu0_L1D TOTAL       ACCESS:   41411001  HIT:   37930170  MISS:    3480831  iACCESS:          0  iHIT:          0  iMISS:          0  dACCESS:   41201130  dHIT:   37916279  dMISS:    3284851  itACCESS:      10871  itHIT:       1145  itMISS:       9726  dtACCESS:     199000  dtHIT:      12746  dtMISS:     186254
cpu0_L1D LOAD         ACCESS:   18919640  HIT:   17433405  MISS:    1486235  iACCESS:          0  iHIT:          0  iMISS:          0  dACCESS:   18919640  dHIT:   17433405  dMISS:    1486235  itACCESS:          0  itHIT:          0  itMISS:          0  dtACCESS:          0  dtHIT:          0  dtMISS:          0
cpu0_L1D RFO          ACCESS:          0  HIT:          0  MISS:          0  iACCESS:          0  iHIT:          0  iMISS:          0  dACCESS:          0  dHIT:          0  dMISS:          0  itACCESS:          0  itHIT:          0  itMISS:          0  dtACCESS:          0  dtHIT:          0  dtMISS:          0
cpu0_L1D PREFETCH     ACCESS:   12087210  HIT:   10734550  MISS:    1352660  iACCESS:          0  iHIT:          0  iMISS:          0  dACCESS:   12087210  dHIT:   10734550  dMISS:    1352660  itACCESS:          0  itHIT:          0  itMISS:          0  dtACCESS:          0  dtHIT:          0  dtMISS:          0
cpu0_L1D WRITE        ACCESS:   10194280  HIT:    9748324  MISS:     445956  iACCESS:          0  iHIT:          0  iMISS:          0  dACCESS:   10194280  dHIT:    9748324  dMISS:     445956  itACCESS:          0  itHIT:          0  itMISS:          0  dtACCESS:          0  dtHIT:          0  dtMISS:          0
cpu0_L1D TRANSLATION  ACCESS:     209871  HIT:      13891  MISS:     195980  iACCESS:          0  iHIT:          0  iMISS:          0  dACCESS:          0  dHIT:          0  dMISS:          0  itACCESS:      10871  itHIT:       1145  itMISS:       9726  dtACCESS:     199000  dtHIT:      12746  dtMISS:     186254
cpu0_L1D PREFETCH  REQUESTED:   18919640  ISSUED:   16856221  CROSSED:          0  USEFUL:     303877  USELESS:     693476
cpu0_L1D AVERAGE iMISS LATENCY: 0 cycles
cpu0_L1D AVERAGE dMISS LATENCY: 35.0052 cycles
cpu0_L1D AVERAGE itMISS LATENCY: 0.222416 cycles
cpu0_L1D AVERAGE dtMISS LATENCY: 2.10115 cycles
cpu0_L1D PAGE CROSSINGS (TLB HIT):         0 
cpu0_L1D PAGE CROSSINGS (TLB MISS):         0 
cpu0_L1D AVERAGE MISS LATENCY: 37.3288 cycles
cpu0_L2C TOTAL       ACCESS:    6870333  HIT:    1220341  MISS:    5649992  iACCESS:    3262251  iHIT:     692172  iMISS:    2570079  dACCESS:    3419146  dHIT:     381882  dMISS:    3037264  itACCESS:       9726  itHIT:       4421  itMISS:       5305  dtACCESS:     179210  dtHIT:     141866  dtMISS:      37344
cpu0_L2C LOAD         ACCESS:    1703606  HIT:     144952  MISS:    1558654  iACCESS:     783714  iHIT:     106587  iMISS:     677127  dACCESS:     919892  dHIT:      38365  dMISS:     881527  itACCESS:          0  itHIT:          0  itMISS:          0  dtACCESS:          0  dtHIT:          0  dtMISS:          0
cpu0_L2C RFO          ACCESS:     156344  HIT:       9017  MISS:     147327  iACCESS:          0  iHIT:          0  iMISS:          0  dACCESS:     156344  dHIT:       9017  dMISS:     147327  itACCESS:          0  itHIT:          0  itMISS:          0  dtACCESS:          0  dtHIT:          0  dtMISS:          0
cpu0_L2C PREFETCH     ACCESS:    4538947  HIT:     863626  MISS:    3675321  iACCESS:    2478537  iHIT:     585585  iMISS:    1892952  dACCESS:    2060410  dHIT:     278041  dMISS:    1782369  itACCESS:          0  itHIT:          0  itMISS:          0  dtACCESS:          0  dtHIT:          0  dtMISS:          0
cpu0_L2C WRITE        ACCESS:     282500  HIT:      56459  MISS:     226041  iACCESS:          0  iHIT:          0  iMISS:          0  dACCESS:     282500  dHIT:      56459  dMISS:     226041  itACCESS:          0  itHIT:          0  itMISS:          0  dtACCESS:          0  dtHIT:          0  dtMISS:          0
cpu0_L2C TRANSLATION  ACCESS:     188936  HIT:     146287  MISS:      42649  iACCESS:          0  iHIT:          0  iMISS:          0  dACCESS:          0  dHIT:          0  dMISS:          0  itACCESS:       9726  itHIT:       4421  itMISS:       5305  dtACCESS:     179210  dtHIT:     141866  dtMISS:      37344
cpu0_L2C PREFETCH  REQUESTED:    1311026  ISSUED:    1311026  CROSSED:          0  USEFUL:     400355  USELESS:     369774
cpu0_L2C AVERAGE iMISS LATENCY: 14.7662 cycles
cpu0_L2C AVERAGE dMISS LATENCY: 24.2376 cycles
cpu0_L2C AVERAGE itMISS LATENCY: 0.120568 cycles
cpu0_L2C AVERAGE dtMISS LATENCY: 1.00082 cycles
cpu0_L2C PAGE CROSSINGS (TLB HIT):         0 
cpu0_L2C PAGE CROSSINGS (TLB MISS):         0 
cpu0_L2C AVERAGE MISS LATENCY: 40.1252 cycles
LLC TOTAL       ACCESS:    5580279  HIT:    4805337  MISS:     774942  iACCESS:    2521132  iHIT:    2287641  iMISS:     233491  dACCESS:    3016498  dHIT:    2506400  dMISS:     510098  itACCESS:       5305  itHIT:       1997  itMISS:       3308  dtACCESS:      37344  dtHIT:       9299  dtMISS:      28045
LLC LOAD         ACCESS:    1557010  HIT:    1371051  MISS:     185959  iACCESS:     675820  iHIT:     625470  iMISS:      50350  dACCESS:     881190  dHIT:     745581  dMISS:     135609  itACCESS:          0  itHIT:          0  itMISS:          0  dtACCESS:          0  dtHIT:          0  dtMISS:          0
LLC RFO          ACCESS:     147326  HIT:     104274  MISS:      43052  iACCESS:          0  iHIT:          0  iMISS:          0  dACCESS:     147326  dHIT:     104274  dMISS:      43052  itACCESS:          0  itHIT:          0  itMISS:          0  dtACCESS:          0  dtHIT:          0  dtMISS:          0
LLC PREFETCH     ACCESS:    3576408  HIT:    3061830  MISS:     514578  iACCESS:    1845312  iHIT:    1662171  iMISS:     183141  dACCESS:    1731096  dHIT:    1399659  dMISS:     331437  itACCESS:          0  itHIT:          0  itMISS:          0  dtACCESS:          0  dtHIT:          0  dtMISS:          0
LLC WRITE        ACCESS:     256886  HIT:     256886  MISS:          0  iACCESS:          0  iHIT:          0  iMISS:          0  dACCESS:     256886  dHIT:     256886  dMISS:          0  itACCESS:          0  itHIT:          0  itMISS:          0  dtACCESS:          0  dtHIT:          0  dtMISS:          0
LLC TRANSLATION  ACCESS:      42649  HIT:      11296  MISS:      31353  iACCESS:          0  iHIT:          0  iMISS:          0  dACCESS:          0  dHIT:          0  dMISS:          0  itACCESS:       5305  itHIT:       1997  itMISS:       3308  dtACCESS:      37344  dtHIT:       9299  dtMISS:      28045
LLC PREFETCH  REQUESTED:          0  ISSUED:          0  CROSSED:          0  USEFUL:          0  USELESS:          0
LLC AVERAGE iMISS LATENCY: 44.8966 cycles
LLC AVERAGE dMISS LATENCY: 108.019 cycles
LLC AVERAGE itMISS LATENCY: 0.74498 cycles
LLC AVERAGE dtMISS LATENCY: 6.34817 cycles
LLC PAGE CROSSINGS (TLB HIT):         0 
LLC PAGE CROSSINGS (TLB MISS):         0 
LLC AVERAGE MISS LATENCY: 160.009 cycles

PageTableWalker TOTAL       ACCESS:      71199  
PageTableWalker AVERAGE LATENCY: 4.7016 cycles
PageTableWalker TOTAL LATENCY: 334749 cycles

DRAM Statistics
Channel 0
 RQ ROW_BUFFER_HIT:     212086
  ROW_BUFFER_MISS:     562738
 AVG DBUS CONGESTED CYCLE:    3.63346
 WQ ROW_BUFFER_HIT:      21461
  ROW_BUFFER_MISS:      30988  FULL:          0

