last_page:0x200000000000000
VMEM_RES_CAP:0x100000
PAGE_SIZE:4096
LOG2_PAGE_SIZE:12
LOG2_PAGE_TABLE_SIZE:9
page_table_levels:5
WARNING: physical memory size is smaller than virtual memory size
FDiP enabled with aggresivity 16

*** ChampSim Multicore Out-of-Order Simulator ***

Warmup Instructions: 50000000
Simulation Instructions: 100000000
Number of CPUs: 1
Small page size: 4096
Large page size: 2097152

CPU 0 Bimodal branch predictor
Basic BTB sets: 1024 ways: 8 indirect buffer size: 4096 RAS size: 64
Instruction page size distrubution: 0
Loading instruction page size distribution from /home/bsc/bsc018186/scratch/itp_asplos25_AE/dump/srv495_ap.pdst
Data page size distrubution: 0
Loading data page size distribution from /home/bsc/bsc018186/scratch/itp_asplos25_AE/dump/srv495_ap.pdst
cpu0_L2C IP-based stride prefetcher
cpu0_L1D next line prefetcher
CHiRPing...
cpu0_L1I next line prefetcher
Off-chip DRAM Size: 4 GiB Channels: 1 Width: 64-bit Data Rate: 3200 MT/s
Heartbeat CPU 0 instructions: 10000000 cycles: 2500232 heartbeat IPC: 3.99963 cumulative IPC: 3.99963 (Simulation time: 0 hr 0 min 39 sec) 
Heartbeat CPU 0 instructions: 20000002 cycles: 5000312 heartbeat IPC: 3.99988 cumulative IPC: 3.99976 (Simulation time: 0 hr 1 min 20 sec) 
Heartbeat CPU 0 instructions: 30000001 cycles: 7500391 heartbeat IPC: 3.99988 cumulative IPC: 3.9998 (Simulation time: 0 hr 2 min 2 sec) 
Heartbeat CPU 0 instructions: 40000003 cycles: 10000405 heartbeat IPC: 3.99998 cumulative IPC: 3.99984 (Simulation time: 0 hr 2 min 44 sec) 
Heartbeat CPU 0 instructions: 50000002 cycles: 12500437 heartbeat IPC: 3.99995 cumulative IPC: 3.99987 (Simulation time: 0 hr 3 min 26 sec) 
Warmup finished CPU 0 instructions: 50000002 cycles: 12500438 cumulative IPC: 3.99987 (Simulation time: 0 hr 3 min 26 sec) 

Warmup complete CPU 0 instructions: 50000002 cycles: 12500438 (Simulation time: 0 hr 3 min 26 sec) 

Heartbeat CPU 0 instructions: 60000000 cycles: 30927965 heartbeat IPC: 0.542667 cumulative IPC: 0.542667 (Simulation time: 0 hr 4 min 36 sec) 
Heartbeat CPU 0 instructions: 70000000 cycles: 49465870 heartbeat IPC: 0.539436 cumulative IPC: 0.541046 (Simulation time: 0 hr 5 min 46 sec) 
Heartbeat CPU 0 instructions: 80000001 cycles: 67579538 heartbeat IPC: 0.55207 cumulative IPC: 0.544672 (Simulation time: 0 hr 6 min 56 sec) 
Heartbeat CPU 0 instructions: 90000000 cycles: 85272285 heartbeat IPC: 0.565204 cumulative IPC: 0.549664 (Simulation time: 0 hr 8 min 5 sec) 
Heartbeat CPU 0 instructions: 100000004 cycles: 103104037 heartbeat IPC: 0.560798 cumulative IPC: 0.551855 (Simulation time: 0 hr 9 min 14 sec) 
*** Reached end of trace: /gpfs/projects/bsc18/MN4/bsc18/romol/ChampSim/traces/qualcomm_srv/srv495_ap.champsimtrace.xz
Heartbeat CPU 0 instructions: 110000004 cycles: 121140733 heartbeat IPC: 0.554426 cumulative IPC: 0.552282 (Simulation time: 0 hr 10 min 23 sec) 
Heartbeat CPU 0 instructions: 120000004 cycles: 139584326 heartbeat IPC: 0.542194 cumulative IPC: 0.550818 (Simulation time: 0 hr 11 min 33 sec) 
Heartbeat CPU 0 instructions: 130000001 cycles: 157884069 heartbeat IPC: 0.546456 cumulative IPC: 0.550269 (Simulation time: 0 hr 12 min 43 sec) 
Heartbeat CPU 0 instructions: 140000002 cycles: 176193633 heartbeat IPC: 0.546163 cumulative IPC: 0.54981 (Simulation time: 0 hr 13 min 53 sec) 
Heartbeat CPU 0 instructions: 150000002 cycles: 194993216 heartbeat IPC: 0.531927 cumulative IPC: 0.547967 (Simulation time: 0 hr 15 min 4 sec) 
Simulation finished CPU 0 instructions: 100000000 cycles: 182492779 cumulative IPC: 0.547967 (Simulation time: 0 hr 15 min 4 sec) 

Simulation complete CPU 0 instructions: 100000000 cycles: 182492779 (Simulation time: 0 hr 15 min 4 sec) 


ChampSim completed all CPUs

Saving instructions large page distribution to /home/bsc/bsc018186/scratch/itp_asplos25_AE/dump/srv495_ap.pdst...
Saving data large page distribution to /home/bsc/bsc018186/scratch/itp_asplos25_AE/dump/srv495_ap.pdst...
=== Simulation ===
CPU 0 runs /gpfs/projects/bsc18/MN4/bsc18/romol/ChampSim/traces/qualcomm_srv/srv495_ap.champsimtrace.xz

Region of Interest Statistics

CPU 0 cumulative IPC: 0.547967 instructions: 100000000 cycles: 182492779
CPU 0 Branch Prediction Accuracy: 80.2549% MPKI: 35.6076 Average ROB Occupancy at Mispredict: 10.3484
Branch type MPKI
BRANCH_DIRECT_JUMP: 1.32006
BRANCH_INDIRECT: 17.7862
BRANCH_CONDITIONAL: 11.5962
BRANCH_DIRECT_CALL: 2.47778
BRANCH_INDIRECT_CALL: 0.692951
BRANCH_RETURN: 1.73448

Instructions large pages: 0
Instructions small pages: 1075
Large page distribution for instructions: 0%

Data large pages: 0
Data small pages: 4728
Large page distribution for data: 0%

cpu0_L1I TOTAL       ACCESS:   35716082  HIT:   27380292  MISS:    8335790  iACCESS:   35716082  iHIT:   27380292  iMISS:    8335790  dACCESS:          0  dHIT:          0  dMISS:          0  itACCESS:          0  itHIT:          0  itMISS:          0  dtACCESS:          0  dtHIT:          0  dtMISS:          0
cpu0_L1I LOAD         ACCESS:   10288049  HIT:    8007342  MISS:    2280707  iACCESS:   10288049  iHIT:    8007342  iMISS:    2280707  dACCESS:          0  dHIT:          0  dMISS:          0  itACCESS:          0  itHIT:          0  itMISS:          0  dtACCESS:          0  dtHIT:          0  dtMISS:          0
cpu0_L1I RFO          ACCESS:          0  HIT:          0  MISS:          0  iACCESS:          0  iHIT:          0  iMISS:          0  dACCESS:          0  dHIT:          0  dMISS:          0  itACCESS:          0  itHIT:          0  itMISS:          0  dtACCESS:          0  dtHIT:          0  dtMISS:          0
cpu0_L1I PREFETCH     ACCESS:   25428033  HIT:   19372950  MISS:    6055083  iACCESS:   25428033  iHIT:   19372950  iMISS:    6055083  dACCESS:          0  dHIT:          0  dMISS:          0  itACCESS:          0  itHIT:          0  itMISS:          0  dtACCESS:          0  dtHIT:          0  dtMISS:          0
cpu0_L1I WRITE        ACCESS:          0  HIT:          0  MISS:          0  iACCESS:          0  iHIT:          0  iMISS:          0  dACCESS:          0  dHIT:          0  dMISS:          0  itACCESS:          0  itHIT:          0  itMISS:          0  dtACCESS:          0  dtHIT:          0  dtMISS:          0
cpu0_L1I TRANSLATION  ACCESS:          0  HIT:          0  MISS:          0  iACCESS:          0  iHIT:          0  iMISS:          0  dACCESS:          0  dHIT:          0  dMISS:          0  itACCESS:          0  itHIT:          0  itMISS:          0  dtACCESS:          0  dtHIT:          0  dtMISS:          0
cpu0_L1I PREFETCH  REQUESTED:   27619734  ISSUED:   27617546  CROSSED:          0  USEFUL:    1976990  USELESS:     652774
cpu0_L1I AVERAGE iMISS LATENCY: 18.8604 cycles
cpu0_L1I AVERAGE dMISS LATENCY: 0 cycles
cpu0_L1I AVERAGE itMISS LATENCY: 0 cycles
cpu0_L1I AVERAGE dtMISS LATENCY: 0 cycles
cpu0_L1I PAGE CROSSINGS (TLB HIT):         0 
cpu0_L1I PAGE CROSSINGS (TLB MISS):         0 
cpu0_L1I AVERAGE MISS LATENCY: 18.8604 cycles
cpu0_ITLB TOTAL       ACCESS:   29896753  HIT:   27959477  MISS:    1937276  iACCESS:   29896753  iHIT:   27959477  iMISS:    1937276  dACCESS:          0  dHIT:          0  dMISS:          0  itACCESS:          0  itHIT:          0  itMISS:          0  dtACCESS:          0  dtHIT:          0  dtMISS:          0
cpu0_ITLB LOAD         ACCESS:   29896753  HIT:   27959477  MISS:    1937276  iACCESS:   29896753  iHIT:   27959477  iMISS:    1937276  dACCESS:          0  dHIT:          0  dMISS:          0  itACCESS:          0  itHIT:          0  itMISS:          0  dtACCESS:          0  dtHIT:          0  dtMISS:          0
cpu0_ITLB RFO          ACCESS:          0  HIT:          0  MISS:          0  iACCESS:          0  iHIT:          0  iMISS:          0  dACCESS:          0  dHIT:          0  dMISS:          0  itACCESS:          0  itHIT:          0  itMISS:          0  dtACCESS:          0  dtHIT:          0  dtMISS:          0
cpu0_ITLB PREFETCH     ACCESS:          0  HIT:          0  MISS:          0  iACCESS:          0  iHIT:          0  iMISS:          0  dACCESS:          0  dHIT:          0  dMISS:          0  itACCESS:          0  itHIT:          0  itMISS:          0  dtACCESS:          0  dtHIT:          0  dtMISS:          0
cpu0_ITLB WRITE        ACCESS:          0  HIT:          0  MISS:          0  iACCESS:          0  iHIT:          0  iMISS:          0  dACCESS:          0  dHIT:          0  dMISS:          0  itACCESS:          0  itHIT:          0  itMISS:          0  dtACCESS:          0  dtHIT:          0  dtMISS:          0
cpu0_ITLB TRANSLATION  ACCESS:          0  HIT:          0  MISS:          0  iACCESS:          0  iHIT:          0  iMISS:          0  dACCESS:          0  dHIT:          0  dMISS:          0  itACCESS:          0  itHIT:          0  itMISS:          0  dtACCESS:          0  dtHIT:          0  dtMISS:          0
cpu0_ITLB PREFETCH  REQUESTED:          0  ISSUED:          0  CROSSED:          0  USEFUL:     330349  USELESS:      61292
cpu0_ITLB AVERAGE iMISS LATENCY: 3.88705 cycles
cpu0_ITLB AVERAGE dMISS LATENCY: 0 cycles
cpu0_ITLB AVERAGE itMISS LATENCY: 0 cycles
cpu0_ITLB AVERAGE dtMISS LATENCY: 0 cycles
cpu0_ITLB PAGE CROSSINGS (TLB HIT):         0 
cpu0_ITLB PAGE CROSSINGS (TLB MISS):         0 
cpu0_ITLB AVERAGE MISS LATENCY: 3.88705 cycles
cpu0_DTLB TOTAL       ACCESS:   28001320  HIT:   26064361  MISS:    1936959  iACCESS:          0  iHIT:          0  iMISS:          0  dACCESS:   28001320  dHIT:   26064361  dMISS:    1936959  itACCESS:          0  itHIT:          0  itMISS:          0  dtACCESS:          0  dtHIT:          0  dtMISS:          0
cpu0_DTLB LOAD         ACCESS:   28001320  HIT:   26064361  MISS:    1936959  iACCESS:          0  iHIT:          0  iMISS:          0  dACCESS:   28001320  dHIT:   26064361  dMISS:    1936959  itACCESS:          0  itHIT:          0  itMISS:          0  dtACCESS:          0  dtHIT:          0  dtMISS:          0
cpu0_DTLB RFO          ACCESS:          0  HIT:          0  MISS:          0  iACCESS:          0  iHIT:          0  iMISS:          0  dACCESS:          0  dHIT:          0  dMISS:          0  itACCESS:          0  itHIT:          0  itMISS:          0  dtACCESS:          0  dtHIT:          0  dtMISS:          0
cpu0_DTLB PREFETCH     ACCESS:          0  HIT:          0  MISS:          0  iACCESS:          0  iHIT:          0  iMISS:          0  dACCESS:          0  dHIT:          0  dMISS:          0  itACCESS:          0  itHIT:          0  itMISS:          0  dtACCESS:          0  dtHIT:          0  dtMISS:          0
cpu0_DTLB WRITE        ACCESS:          0  HIT:          0  MISS:          0  iACCESS:          0  iHIT:          0  iMISS:          0  dACCESS:          0  dHIT:          0  dMISS:          0  itACCESS:          0  itHIT:          0  itMISS:          0  dtACCESS:          0  dtHIT:          0  dtMISS:          0
cpu0_DTLB TRANSLATION  ACCESS:          0  HIT:          0  MISS:          0  iACCESS:          0  iHIT:          0  iMISS:          0  dACCESS:          0  dHIT:          0  dMISS:          0  itACCESS:          0  itHIT:          0  itMISS:          0  dtACCESS:          0  dtHIT:          0  dtMISS:          0
cpu0_DTLB PREFETCH  REQUESTED:          0  ISSUED:          0  CROSSED:          0  USEFUL:          0  USELESS:          0
cpu0_DTLB AVERAGE iMISS LATENCY: 0 cycles
cpu0_DTLB AVERAGE dMISS LATENCY: 11.8449 cycles
cpu0_DTLB AVERAGE itMISS LATENCY: 0 cycles
cpu0_DTLB AVERAGE dtMISS LATENCY: 0 cycles
cpu0_DTLB PAGE CROSSINGS (TLB HIT):         0 
cpu0_DTLB PAGE CROSSINGS (TLB MISS):         0 
cpu0_DTLB AVERAGE MISS LATENCY: 11.8449 cycles
cpu0_STLB TOTAL       ACCESS:    1611377  HIT:    1374140  MISS:     237237  iACCESS:     391655  iHIT:     301833  iMISS:      89822  dACCESS:    1219722  dHIT:    1072307  dMISS:     147415  itACCESS:          0  itHIT:          0  itMISS:          0  dtACCESS:          0  dtHIT:          0  dtMISS:          0
cpu0_STLB LOAD         ACCESS:    1611377  HIT:    1374140  MISS:     237237  iACCESS:     391655  iHIT:     301833  iMISS:      89822  dACCESS:    1219722  dHIT:    1072307  dMISS:     147415  itACCESS:          0  itHIT:          0  itMISS:          0  dtACCESS:          0  dtHIT:          0  dtMISS:          0
cpu0_STLB RFO          ACCESS:          0  HIT:          0  MISS:          0  iACCESS:          0  iHIT:          0  iMISS:          0  dACCESS:          0  dHIT:          0  dMISS:          0  itACCESS:          0  itHIT:          0  itMISS:          0  dtACCESS:          0  dtHIT:          0  dtMISS:          0
cpu0_STLB PREFETCH     ACCESS:          0  HIT:          0  MISS:          0  iACCESS:          0  iHIT:          0  iMISS:          0  dACCESS:          0  dHIT:          0  dMISS:          0  itACCESS:          0  itHIT:          0  itMISS:          0  dtACCESS:          0  dtHIT:          0  dtMISS:          0
cpu0_STLB WRITE        ACCESS:          0  HIT:          0  MISS:          0  iACCESS:          0  iHIT:          0  iMISS:          0  dACCESS:          0  dHIT:          0  dMISS:          0  itACCESS:          0  itHIT:          0  itMISS:          0  dtACCESS:          0  dtHIT:          0  dtMISS:          0
cpu0_STLB TRANSLATION  ACCESS:          0  HIT:          0  MISS:          0  iACCESS:          0  iHIT:          0  iMISS:          0  dACCESS:          0  dHIT:          0  dMISS:          0  itACCESS:          0  itHIT:          0  itMISS:          0  dtACCESS:          0  dtHIT:          0  dtMISS:          0
cpu0_STLB PREFETCH  REQUESTED:          0  ISSUED:          0  CROSSED:          0  USEFUL:          0  USELESS:          0
cpu0_STLB AVERAGE iMISS LATENCY: 18.5647 cycles
cpu0_STLB AVERAGE dMISS LATENCY: 55.6231 cycles
cpu0_STLB AVERAGE itMISS LATENCY: 0 cycles
cpu0_STLB AVERAGE dtMISS LATENCY: 0 cycles
cpu0_STLB PAGE CROSSINGS (TLB HIT):         0 
cpu0_STLB PAGE CROSSINGS (TLB MISS):         0 
cpu0_STLB AVERAGE MISS LATENCY: 74.1878 cycles
cpu0_L1D TOTAL       ACCESS:   42625544  HIT:   38443318  MISS:    4182226  iACCESS:          0  iHIT:          0  iMISS:          0  dACCESS:   42328022  dHIT:   38415326  dMISS:    3912696  itACCESS:      96241  itHIT:      15767  itMISS:      80474  dtACCESS:     201281  dtHIT:      12225  dtMISS:     189056
cpu0_L1D LOAD         ACCESS:   19405126  HIT:   17619476  MISS:    1785650  iACCESS:          0  iHIT:          0  iMISS:          0  dACCESS:   19405126  dHIT:   17619476  dMISS:    1785650  itACCESS:          0  itHIT:          0  itMISS:          0  dtACCESS:          0  dtHIT:          0  dtMISS:          0
cpu0_L1D RFO          ACCESS:          0  HIT:          0  MISS:          0  iACCESS:          0  iHIT:          0  iMISS:          0  dACCESS:          0  dHIT:          0  dMISS:          0  itACCESS:          0  itHIT:          0  itMISS:          0  dtACCESS:          0  dtHIT:          0  dtMISS:          0
cpu0_L1D PREFETCH     ACCESS:   12773589  HIT:   11110254  MISS:    1663335  iACCESS:          0  iHIT:          0  iMISS:          0  dACCESS:   12773589  dHIT:   11110254  dMISS:    1663335  itACCESS:          0  itHIT:          0  itMISS:          0  dtACCESS:          0  dtHIT:          0  dtMISS:          0
cpu0_L1D WRITE        ACCESS:   10149307  HIT:    9685596  MISS:     463711  iACCESS:          0  iHIT:          0  iMISS:          0  dACCESS:   10149307  dHIT:    9685596  dMISS:     463711  itACCESS:          0  itHIT:          0  itMISS:          0  dtACCESS:          0  dtHIT:          0  dtMISS:          0
cpu0_L1D TRANSLATION  ACCESS:     297522  HIT:      27992  MISS:     269530  iACCESS:          0  iHIT:          0  iMISS:          0  dACCESS:          0  dHIT:          0  dMISS:          0  itACCESS:      96241  itHIT:      15767  itMISS:      80474  dtACCESS:     201281  dtHIT:      12225  dtMISS:     189056
cpu0_L1D PREFETCH  REQUESTED:   19405126  ISSUED:   17293558  CROSSED:          0  USEFUL:     312214  USELESS:     707633
cpu0_L1D AVERAGE iMISS LATENCY: 0 cycles
cpu0_L1D AVERAGE dMISS LATENCY: 38.3731 cycles
cpu0_L1D AVERAGE itMISS LATENCY: 0.867745 cycles
cpu0_L1D AVERAGE dtMISS LATENCY: 2.68948 cycles
cpu0_L1D PAGE CROSSINGS (TLB HIT):         0 
cpu0_L1D PAGE CROSSINGS (TLB MISS):         0 
cpu0_L1D AVERAGE MISS LATENCY: 41.9303 cycles
cpu0_L2C TOTAL       ACCESS:    7278419  HIT:    1667906  MISS:    5610513  iACCESS:    3354417  iHIT:     848256  iMISS:    2506161  dACCESS:    3659209  dHIT:     653370  dMISS:    3005839  itACCESS:      80474  itHIT:      59793  itMISS:      20681  dtACCESS:     184319  dtHIT:     106487  dtMISS:      77832
cpu0_L2C LOAD         ACCESS:    1714985  HIT:     258564  MISS:    1456421  iACCESS:     761418  iHIT:     133603  iMISS:     627815  dACCESS:     953567  dHIT:     124961  dMISS:     828606  itACCESS:          0  itHIT:          0  itMISS:          0  dtACCESS:          0  dtHIT:          0  dtMISS:          0
cpu0_L2C RFO          ACCESS:     165832  HIT:      44359  MISS:     121473  iACCESS:          0  iHIT:          0  iMISS:          0  dACCESS:     165832  dHIT:      44359  dMISS:     121473  itACCESS:          0  itHIT:          0  itMISS:          0  dtACCESS:          0  dtHIT:          0  dtMISS:          0
cpu0_L2C PREFETCH     ACCESS:    4857063  HIT:    1074395  MISS:    3782668  iACCESS:    2592999  iHIT:     714653  iMISS:    1878346  dACCESS:    2264064  dHIT:     359742  dMISS:    1904322  itACCESS:          0  itHIT:          0  itMISS:          0  dtACCESS:          0  dtHIT:          0  dtMISS:          0
cpu0_L2C WRITE        ACCESS:     275746  HIT:     124308  MISS:     151438  iACCESS:          0  iHIT:          0  iMISS:          0  dACCESS:     275746  dHIT:     124308  dMISS:     151438  itACCESS:          0  itHIT:          0  itMISS:          0  dtACCESS:          0  dtHIT:          0  dtMISS:          0
cpu0_L2C TRANSLATION  ACCESS:     264793  HIT:     166280  MISS:      98513  iACCESS:          0  iHIT:          0  iMISS:          0  dACCESS:          0  dHIT:          0  dMISS:          0  itACCESS:      80474  itHIT:      59793  itMISS:      20681  dtACCESS:     184319  dtHIT:     106487  dtMISS:      77832
cpu0_L2C PREFETCH  REQUESTED:    1504026  ISSUED:    1504025  CROSSED:          0  USEFUL:     416618  USELESS:     431787
cpu0_L2C AVERAGE iMISS LATENCY: 22.673 cycles
cpu0_L2C AVERAGE dMISS LATENCY: 36.3871 cycles
cpu0_L2C AVERAGE itMISS LATENCY: 0.513661 cycles
cpu0_L2C AVERAGE dtMISS LATENCY: 1.69401 cycles
cpu0_L2C PAGE CROSSINGS (TLB HIT):         0 
cpu0_L2C PAGE CROSSINGS (TLB MISS):         0 
cpu0_L2C AVERAGE MISS LATENCY: 61.2677 cycles
LLC TOTAL       ACCESS:    5431480  HIT:    3880138  MISS:    1551342  iACCESS:    2429248  iHIT:    1874052  iMISS:     555196  dACCESS:    2903719  dHIT:    1965144  dMISS:     938575  itACCESS:      20681  itHIT:       6422  itMISS:      14259  dtACCESS:      77832  dtHIT:      34520  dtMISS:      43312
LLC LOAD         ACCESS:    1449927  HIT:    1108534  MISS:     341393  iACCESS:     626450  iHIT:     511457  iMISS:     114993  dACCESS:     823477  dHIT:     597077  dMISS:     226400  itACCESS:          0  itHIT:          0  itMISS:          0  dtACCESS:          0  dtHIT:          0  dtMISS:          0
LLC RFO          ACCESS:     121466  HIT:      65648  MISS:      55818  iACCESS:          0  iHIT:          0  iMISS:          0  dACCESS:     121466  dHIT:      65648  dMISS:      55818  itACCESS:          0  itHIT:          0  itMISS:          0  dtACCESS:          0  dtHIT:          0  dtMISS:          0
LLC PREFETCH     ACCESS:    3609120  HIT:    2522776  MISS:    1086344  iACCESS:    1802798  iHIT:    1362595  iMISS:     440203  dACCESS:    1806322  dHIT:    1160181  dMISS:     646141  itACCESS:          0  itHIT:          0  itMISS:          0  dtACCESS:          0  dtHIT:          0  dtMISS:          0
LLC WRITE        ACCESS:     152454  HIT:     142238  MISS:      10216  iACCESS:          0  iHIT:          0  iMISS:          0  dACCESS:     152454  dHIT:     142238  dMISS:      10216  itACCESS:          0  itHIT:          0  itMISS:          0  dtACCESS:          0  dtHIT:          0  dtMISS:          0
LLC TRANSLATION  ACCESS:      98513  HIT:      40942  MISS:      57571  iACCESS:          0  iHIT:          0  iMISS:          0  dACCESS:          0  dHIT:          0  dMISS:          0  itACCESS:      20681  itHIT:       6422  itMISS:      14259  dtACCESS:      77832  dtHIT:      34520  dtMISS:      43312
LLC PREFETCH  REQUESTED:          0  ISSUED:          0  CROSSED:          0  USEFUL:          0  USELESS:          0
LLC AVERAGE iMISS LATENCY: 51.6736 cycles
LLC AVERAGE dMISS LATENCY: 98.0412 cycles
LLC AVERAGE itMISS LATENCY: 1.59574 cycles
LLC AVERAGE dtMISS LATENCY: 5.1466 cycles
LLC PAGE CROSSINGS (TLB HIT):         0 
LLC PAGE CROSSINGS (TLB MISS):         0 
LLC AVERAGE MISS LATENCY: 156.458 cycles

PageTableWalker TOTAL       ACCESS:     119258  
PageTableWalker AVERAGE LATENCY: 4.13221 cycles
PageTableWalker TOTAL LATENCY: 492798 cycles

DRAM Statistics
Channel 0
 RQ ROW_BUFFER_HIT:     470178
  ROW_BUFFER_MISS:    1060275
 AVG DBUS CONGESTED CYCLE:    3.63217
 WQ ROW_BUFFER_HIT:      30990
  ROW_BUFFER_MISS:      23741  FULL:          0

