last_page:0x200000000000000
VMEM_RES_CAP:0x100000
PAGE_SIZE:4096
LOG2_PAGE_SIZE:12
LOG2_PAGE_TABLE_SIZE:9
page_table_levels:5
WARNING: physical memory size is smaller than virtual memory size
FDiP enabled with aggresivity 16

*** ChampSim Multicore Out-of-Order Simulator ***

Warmup Instructions: 50000000
Simulation Instructions: 100000000
Number of CPUs: 1
Small page size: 4096
Large page size: 2097152

CPU 0 Bimodal branch predictor
Basic BTB sets: 1024 ways: 8 indirect buffer size: 4096 RAS size: 64
Instruction page size distrubution: 0
Loading instruction page size distribution from /home/bsc/bsc018186/scratch/itp_asplos25_AE/dump/srv426_ap.pdst
Data page size distrubution: 0
Loading data page size distribution from /home/bsc/bsc018186/scratch/itp_asplos25_AE/dump/srv426_ap.pdst
cpu0_L2C IP-based stride prefetcher
cpu0_L1D next line prefetcher
CHiRPing...
cpu0_L1I next line prefetcher
Off-chip DRAM Size: 4 GiB Channels: 1 Width: 64-bit Data Rate: 3200 MT/s
Heartbeat CPU 0 instructions: 10000000 cycles: 2501419 heartbeat IPC: 3.99774 cumulative IPC: 3.99774 (Simulation time: 0 hr 0 min 37 sec) 
Heartbeat CPU 0 instructions: 20000001 cycles: 5002039 heartbeat IPC: 3.99901 cumulative IPC: 3.99837 (Simulation time: 0 hr 1 min 17 sec) 
Heartbeat CPU 0 instructions: 30000001 cycles: 7504233 heartbeat IPC: 3.9965 cumulative IPC: 3.99775 (Simulation time: 0 hr 1 min 57 sec) 
Heartbeat CPU 0 instructions: 40000000 cycles: 10008856 heartbeat IPC: 3.99262 cumulative IPC: 3.99647 (Simulation time: 0 hr 2 min 37 sec) 
Heartbeat CPU 0 instructions: 50000000 cycles: 12509142 heartbeat IPC: 3.99955 cumulative IPC: 3.99708 (Simulation time: 0 hr 3 min 17 sec) 
Warmup finished CPU 0 instructions: 50000000 cycles: 12509143 cumulative IPC: 3.99708 (Simulation time: 0 hr 3 min 17 sec) 

Warmup complete CPU 0 instructions: 50000000 cycles: 12509143 (Simulation time: 0 hr 3 min 17 sec) 

Heartbeat CPU 0 instructions: 60000000 cycles: 35439497 heartbeat IPC: 0.436104 cumulative IPC: 0.436104 (Simulation time: 0 hr 4 min 33 sec) 
Heartbeat CPU 0 instructions: 70000000 cycles: 56051962 heartbeat IPC: 0.485144 cumulative IPC: 0.459318 (Simulation time: 0 hr 5 min 45 sec) 
Heartbeat CPU 0 instructions: 80000002 cycles: 75381191 heartbeat IPC: 0.517352 cumulative IPC: 0.47716 (Simulation time: 0 hr 6 min 57 sec) 
Heartbeat CPU 0 instructions: 90000000 cycles: 96251150 heartbeat IPC: 0.479158 cumulative IPC: 0.477658 (Simulation time: 0 hr 8 min 14 sec) 
Heartbeat CPU 0 instructions: 100000002 cycles: 118027885 heartbeat IPC: 0.459206 cumulative IPC: 0.47385 (Simulation time: 0 hr 9 min 30 sec) 
*** Reached end of trace: /gpfs/projects/bsc18/MN4/bsc18/romol/ChampSim/traces/qualcomm_srv/srv426_ap.champsimtrace.xz
Heartbeat CPU 0 instructions: 110000001 cycles: 137581566 heartbeat IPC: 0.511413 cumulative IPC: 0.479723 (Simulation time: 0 hr 10 min 43 sec) 
Heartbeat CPU 0 instructions: 120000001 cycles: 158196983 heartbeat IPC: 0.485074 cumulative IPC: 0.48048 (Simulation time: 0 hr 11 min 57 sec) 
Heartbeat CPU 0 instructions: 130000000 cycles: 180796631 heartbeat IPC: 0.442485 cumulative IPC: 0.475377 (Simulation time: 0 hr 13 min 16 sec) 
Heartbeat CPU 0 instructions: 140000000 cycles: 203879233 heartbeat IPC: 0.433227 cumulative IPC: 0.470293 (Simulation time: 0 hr 14 min 35 sec) 
Heartbeat CPU 0 instructions: 150000000 cycles: 224998634 heartbeat IPC: 0.473499 cumulative IPC: 0.470612 (Simulation time: 0 hr 15 min 50 sec) 
Simulation finished CPU 0 instructions: 100000000 cycles: 212489492 cumulative IPC: 0.470612 (Simulation time: 0 hr 15 min 50 sec) 

Simulation complete CPU 0 instructions: 100000000 cycles: 212489492 (Simulation time: 0 hr 15 min 50 sec) 


ChampSim completed all CPUs

Saving instructions large page distribution to /home/bsc/bsc018186/scratch/itp_asplos25_AE/dump/srv426_ap.pdst...
Saving data large page distribution to /home/bsc/bsc018186/scratch/itp_asplos25_AE/dump/srv426_ap.pdst...
=== Simulation ===
CPU 0 runs /gpfs/projects/bsc18/MN4/bsc18/romol/ChampSim/traces/qualcomm_srv/srv426_ap.champsimtrace.xz

Region of Interest Statistics

CPU 0 cumulative IPC: 0.470612 instructions: 100000000 cycles: 212489492
CPU 0 Branch Prediction Accuracy: 81.1561% MPKI: 34.1327 Average ROB Occupancy at Mispredict: 11.8223
Branch type MPKI
BRANCH_DIRECT_JUMP: 1.08801
BRANCH_INDIRECT: 16.565
BRANCH_CONDITIONAL: 11.8408
BRANCH_DIRECT_CALL: 2.01459
BRANCH_INDIRECT_CALL: 1.12874
BRANCH_RETURN: 1.49567

Instructions large pages: 0
Instructions small pages: 1248
Large page distribution for instructions: 0%

Data large pages: 0
Data small pages: 5192
Large page distribution for data: 0%

cpu0_L1I TOTAL       ACCESS:   31841128  HIT:   25173884  MISS:    6667244  iACCESS:   31841128  iHIT:   25173884  iMISS:    6667244  dACCESS:          0  dHIT:          0  dMISS:          0  itACCESS:          0  itHIT:          0  itMISS:          0  dtACCESS:          0  dtHIT:          0  dtMISS:          0
cpu0_L1I LOAD         ACCESS:    8523601  HIT:    6676139  MISS:    1847462  iACCESS:    8523601  iHIT:    6676139  iMISS:    1847462  dACCESS:          0  dHIT:          0  dMISS:          0  itACCESS:          0  itHIT:          0  itMISS:          0  dtACCESS:          0  dtHIT:          0  dtMISS:          0
cpu0_L1I RFO          ACCESS:          0  HIT:          0  MISS:          0  iACCESS:          0  iHIT:          0  iMISS:          0  dACCESS:          0  dHIT:          0  dMISS:          0  itACCESS:          0  itHIT:          0  itMISS:          0  dtACCESS:          0  dtHIT:          0  dtMISS:          0
cpu0_L1I PREFETCH     ACCESS:   23317527  HIT:   18497745  MISS:    4819782  iACCESS:   23317527  iHIT:   18497745  iMISS:    4819782  dACCESS:          0  dHIT:          0  dMISS:          0  itACCESS:          0  itHIT:          0  itMISS:          0  dtACCESS:          0  dtHIT:          0  dtMISS:          0
cpu0_L1I WRITE        ACCESS:          0  HIT:          0  MISS:          0  iACCESS:          0  iHIT:          0  iMISS:          0  dACCESS:          0  dHIT:          0  dMISS:          0  itACCESS:          0  itHIT:          0  itMISS:          0  dtACCESS:          0  dtHIT:          0  dtMISS:          0
cpu0_L1I TRANSLATION  ACCESS:          0  HIT:          0  MISS:          0  iACCESS:          0  iHIT:          0  iMISS:          0  dACCESS:          0  dHIT:          0  dMISS:          0  itACCESS:          0  itHIT:          0  itMISS:          0  dtACCESS:          0  dtHIT:          0  dtMISS:          0
cpu0_L1I PREFETCH  REQUESTED:   25284598  ISSUED:   25284392  CROSSED:          0  USEFUL:    1644335  USELESS:     562970
cpu0_L1I AVERAGE iMISS LATENCY: 21.9477 cycles
cpu0_L1I AVERAGE dMISS LATENCY: 0 cycles
cpu0_L1I AVERAGE itMISS LATENCY: 0 cycles
cpu0_L1I AVERAGE dtMISS LATENCY: 0 cycles
cpu0_L1I PAGE CROSSINGS (TLB HIT):         0 
cpu0_L1I PAGE CROSSINGS (TLB MISS):         0 
cpu0_L1I AVERAGE MISS LATENCY: 21.9477 cycles
cpu0_ITLB TOTAL       ACCESS:   27132747  HIT:   25476255  MISS:    1656492  iACCESS:   27132747  iHIT:   25476255  iMISS:    1656492  dACCESS:          0  dHIT:          0  dMISS:          0  itACCESS:          0  itHIT:          0  itMISS:          0  dtACCESS:          0  dtHIT:          0  dtMISS:          0
cpu0_ITLB LOAD         ACCESS:   27132747  HIT:   25476255  MISS:    1656492  iACCESS:   27132747  iHIT:   25476255  iMISS:    1656492  dACCESS:          0  dHIT:          0  dMISS:          0  itACCESS:          0  itHIT:          0  itMISS:          0  dtACCESS:          0  dtHIT:          0  dtMISS:          0
cpu0_ITLB RFO          ACCESS:          0  HIT:          0  MISS:          0  iACCESS:          0  iHIT:          0  iMISS:          0  dACCESS:          0  dHIT:          0  dMISS:          0  itACCESS:          0  itHIT:          0  itMISS:          0  dtACCESS:          0  dtHIT:          0  dtMISS:          0
cpu0_ITLB PREFETCH     ACCESS:          0  HIT:          0  MISS:          0  iACCESS:          0  iHIT:          0  iMISS:          0  dACCESS:          0  dHIT:          0  dMISS:          0  itACCESS:          0  itHIT:          0  itMISS:          0  dtACCESS:          0  dtHIT:          0  dtMISS:          0
cpu0_ITLB WRITE        ACCESS:          0  HIT:          0  MISS:          0  iACCESS:          0  iHIT:          0  iMISS:          0  dACCESS:          0  dHIT:          0  dMISS:          0  itACCESS:          0  itHIT:          0  itMISS:          0  dtACCESS:          0  dtHIT:          0  dtMISS:          0
cpu0_ITLB TRANSLATION  ACCESS:          0  HIT:          0  MISS:          0  iACCESS:          0  iHIT:          0  iMISS:          0  dACCESS:          0  dHIT:          0  dMISS:          0  itACCESS:          0  itHIT:          0  itMISS:          0  dtACCESS:          0  dtHIT:          0  dtMISS:          0
cpu0_ITLB PREFETCH  REQUESTED:          0  ISSUED:          0  CROSSED:          0  USEFUL:     279745  USELESS:      52448
cpu0_ITLB AVERAGE iMISS LATENCY: 8.69691 cycles
cpu0_ITLB AVERAGE dMISS LATENCY: 0 cycles
cpu0_ITLB AVERAGE itMISS LATENCY: 0 cycles
cpu0_ITLB AVERAGE dtMISS LATENCY: 0 cycles
cpu0_ITLB PAGE CROSSINGS (TLB HIT):         0 
cpu0_ITLB PAGE CROSSINGS (TLB MISS):         0 
cpu0_ITLB AVERAGE MISS LATENCY: 8.69691 cycles
cpu0_DTLB TOTAL       ACCESS:   29338413  HIT:   27516291  MISS:    1822122  iACCESS:          0  iHIT:          0  iMISS:          0  dACCESS:   29338413  dHIT:   27516291  dMISS:    1822122  itACCESS:          0  itHIT:          0  itMISS:          0  dtACCESS:          0  dtHIT:          0  dtMISS:          0
cpu0_DTLB LOAD         ACCESS:   29338413  HIT:   27516291  MISS:    1822122  iACCESS:          0  iHIT:          0  iMISS:          0  dACCESS:   29338413  dHIT:   27516291  dMISS:    1822122  itACCESS:          0  itHIT:          0  itMISS:          0  dtACCESS:          0  dtHIT:          0  dtMISS:          0
cpu0_DTLB RFO          ACCESS:          0  HIT:          0  MISS:          0  iACCESS:          0  iHIT:          0  iMISS:          0  dACCESS:          0  dHIT:          0  dMISS:          0  itACCESS:          0  itHIT:          0  itMISS:          0  dtACCESS:          0  dtHIT:          0  dtMISS:          0
cpu0_DTLB PREFETCH     ACCESS:          0  HIT:          0  MISS:          0  iACCESS:          0  iHIT:          0  iMISS:          0  dACCESS:          0  dHIT:          0  dMISS:          0  itACCESS:          0  itHIT:          0  itMISS:          0  dtACCESS:          0  dtHIT:          0  dtMISS:          0
cpu0_DTLB WRITE        ACCESS:          0  HIT:          0  MISS:          0  iACCESS:          0  iHIT:          0  iMISS:          0  dACCESS:          0  dHIT:          0  dMISS:          0  itACCESS:          0  itHIT:          0  itMISS:          0  dtACCESS:          0  dtHIT:          0  dtMISS:          0
cpu0_DTLB TRANSLATION  ACCESS:          0  HIT:          0  MISS:          0  iACCESS:          0  iHIT:          0  iMISS:          0  dACCESS:          0  dHIT:          0  dMISS:          0  itACCESS:          0  itHIT:          0  itMISS:          0  dtACCESS:          0  dtHIT:          0  dtMISS:          0
cpu0_DTLB PREFETCH  REQUESTED:          0  ISSUED:          0  CROSSED:          0  USEFUL:          0  USELESS:          0
cpu0_DTLB AVERAGE iMISS LATENCY: 0 cycles
cpu0_DTLB AVERAGE dMISS LATENCY: 22.3817 cycles
cpu0_DTLB AVERAGE itMISS LATENCY: 0 cycles
cpu0_DTLB AVERAGE dtMISS LATENCY: 0 cycles
cpu0_DTLB PAGE CROSSINGS (TLB HIT):         0 
cpu0_DTLB PAGE CROSSINGS (TLB MISS):         0 
cpu0_DTLB AVERAGE MISS LATENCY: 22.3817 cycles
cpu0_STLB TOTAL       ACCESS:    1408970  HIT:    1186508  MISS:     222462  iACCESS:     332198  iHIT:     250983  iMISS:      81215  dACCESS:    1076772  dHIT:     935525  dMISS:     141247  itACCESS:          0  itHIT:          0  itMISS:          0  dtACCESS:          0  dtHIT:          0  dtMISS:          0
cpu0_STLB LOAD         ACCESS:    1408970  HIT:    1186508  MISS:     222462  iACCESS:     332198  iHIT:     250983  iMISS:      81215  dACCESS:    1076772  dHIT:     935525  dMISS:     141247  itACCESS:          0  itHIT:          0  itMISS:          0  dtACCESS:          0  dtHIT:          0  dtMISS:          0
cpu0_STLB RFO          ACCESS:          0  HIT:          0  MISS:          0  iACCESS:          0  iHIT:          0  iMISS:          0  dACCESS:          0  dHIT:          0  dMISS:          0  itACCESS:          0  itHIT:          0  itMISS:          0  dtACCESS:          0  dtHIT:          0  dtMISS:          0
cpu0_STLB PREFETCH     ACCESS:          0  HIT:          0  MISS:          0  iACCESS:          0  iHIT:          0  iMISS:          0  dACCESS:          0  dHIT:          0  dMISS:          0  itACCESS:          0  itHIT:          0  itMISS:          0  dtACCESS:          0  dtHIT:          0  dtMISS:          0
cpu0_STLB WRITE        ACCESS:          0  HIT:          0  MISS:          0  iACCESS:          0  iHIT:          0  iMISS:          0  dACCESS:          0  dHIT:          0  dMISS:          0  itACCESS:          0  itHIT:          0  itMISS:          0  dtACCESS:          0  dtHIT:          0  dtMISS:          0
cpu0_STLB TRANSLATION  ACCESS:          0  HIT:          0  MISS:          0  iACCESS:          0  iHIT:          0  iMISS:          0  dACCESS:          0  dHIT:          0  dMISS:          0  itACCESS:          0  itHIT:          0  itMISS:          0  dtACCESS:          0  dtHIT:          0  dtMISS:          0
cpu0_STLB PREFETCH  REQUESTED:          0  ISSUED:          0  CROSSED:          0  USEFUL:          0  USELESS:          0
cpu0_STLB AVERAGE iMISS LATENCY: 52.7925 cycles
cpu0_STLB AVERAGE dMISS LATENCY: 144.543 cycles
cpu0_STLB AVERAGE itMISS LATENCY: 0 cycles
cpu0_STLB AVERAGE dtMISS LATENCY: 0 cycles
cpu0_STLB PAGE CROSSINGS (TLB HIT):         0 
cpu0_STLB PAGE CROSSINGS (TLB MISS):         0 
cpu0_STLB AVERAGE MISS LATENCY: 197.336 cycles
cpu0_L1D TOTAL       ACCESS:   45891424  HIT:   39816368  MISS:    6075056  iACCESS:          0  iHIT:          0  iMISS:          0  dACCESS:   45551950  dHIT:   39788823  dMISS:    5763127  itACCESS:      92045  itHIT:      14785  itMISS:      77260  dtACCESS:     247429  dtHIT:      12760  dtMISS:     234669
cpu0_L1D LOAD         ACCESS:   21959143  HIT:   19286519  MISS:    2672624  iACCESS:          0  iHIT:          0  iMISS:          0  dACCESS:   21959143  dHIT:   19286519  dMISS:    2672624  itACCESS:          0  itHIT:          0  itMISS:          0  dtACCESS:          0  dtHIT:          0  dtMISS:          0
cpu0_L1D RFO          ACCESS:          0  HIT:          0  MISS:          0  iACCESS:          0  iHIT:          0  iMISS:          0  dACCESS:          0  dHIT:          0  dMISS:          0  itACCESS:          0  itHIT:          0  itMISS:          0  dtACCESS:          0  dtHIT:          0  dtMISS:          0
cpu0_L1D PREFETCH     ACCESS:   13920380  HIT:   11524124  MISS:    2396256  iACCESS:          0  iHIT:          0  iMISS:          0  dACCESS:   13920380  dHIT:   11524124  dMISS:    2396256  itACCESS:          0  itHIT:          0  itMISS:          0  dtACCESS:          0  dtHIT:          0  dtMISS:          0
cpu0_L1D WRITE        ACCESS:    9672427  HIT:    8978180  MISS:     694247  iACCESS:          0  iHIT:          0  iMISS:          0  dACCESS:    9672427  dHIT:    8978180  dMISS:     694247  itACCESS:          0  itHIT:          0  itMISS:          0  dtACCESS:          0  dtHIT:          0  dtMISS:          0
cpu0_L1D TRANSLATION  ACCESS:     339474  HIT:      27545  MISS:     311929  iACCESS:          0  iHIT:          0  iMISS:          0  dACCESS:          0  dHIT:          0  dMISS:          0  itACCESS:      92045  itHIT:      14785  itMISS:      77260  dtACCESS:     247429  dtHIT:      12760  dtMISS:     234669
cpu0_L1D PREFETCH  REQUESTED:   21959143  ISSUED:   18521450  CROSSED:          0  USEFUL:     315988  USELESS:     700481
cpu0_L1D AVERAGE iMISS LATENCY: 0 cycles
cpu0_L1D AVERAGE dMISS LATENCY: 36.7046 cycles
cpu0_L1D AVERAGE itMISS LATENCY: 1.81233 cycles
cpu0_L1D AVERAGE dtMISS LATENCY: 4.94003 cycles
cpu0_L1D PAGE CROSSINGS (TLB HIT):         0 
cpu0_L1D PAGE CROSSINGS (TLB MISS):         0 
cpu0_L1D AVERAGE MISS LATENCY: 43.4569 cycles
cpu0_L2C TOTAL       ACCESS:    6748003  HIT:    3393019  MISS:    3354984  iACCESS:    2841506  iHIT:    1701123  iMISS:    1140383  dACCESS:    3660792  dHIT:    1658440  dMISS:    2002352  itACCESS:      72385  itHIT:      11692  itMISS:      60693  dtACCESS:     173320  dtHIT:      21764  dtMISS:     151556
cpu0_L2C LOAD         ACCESS:    1803471  HIT:     969899  MISS:     833572  iACCESS:     664483  iHIT:     425372  iMISS:     239111  dACCESS:    1138988  dHIT:     544527  dMISS:     594461  itACCESS:          0  itHIT:          0  itMISS:          0  dtACCESS:          0  dtHIT:          0  dtMISS:          0
cpu0_L2C RFO          ACCESS:     172147  HIT:      60679  MISS:     111468  iACCESS:          0  iHIT:          0  iMISS:          0  dACCESS:     172147  dHIT:      60679  dMISS:     111468  itACCESS:          0  itHIT:          0  itMISS:          0  dtACCESS:          0  dtHIT:          0  dtMISS:          0
cpu0_L2C PREFETCH     ACCESS:    4242844  HIT:    2046149  MISS:    2196695  iACCESS:    2177023  iHIT:    1275751  iMISS:     901272  dACCESS:    2065821  dHIT:     770398  dMISS:    1295423  itACCESS:          0  itHIT:          0  itMISS:          0  dtACCESS:          0  dtHIT:          0  dtMISS:          0
cpu0_L2C WRITE        ACCESS:     283836  HIT:     282836  MISS:       1000  iACCESS:          0  iHIT:          0  iMISS:          0  dACCESS:     283836  dHIT:     282836  dMISS:       1000  itACCESS:          0  itHIT:          0  itMISS:          0  dtACCESS:          0  dtHIT:          0  dtMISS:          0
cpu0_L2C TRANSLATION  ACCESS:     245705  HIT:      33456  MISS:     212249  iACCESS:          0  iHIT:          0  iMISS:          0  dACCESS:          0  dHIT:          0  dMISS:          0  itACCESS:      72385  itHIT:      11692  itMISS:      60693  dtACCESS:     173320  dtHIT:      21764  dtMISS:     151556
cpu0_L2C PREFETCH  REQUESTED:    1256392  ISSUED:    1254911  CROSSED:          0  USEFUL:     294043  USELESS:     259223
cpu0_L2C AVERAGE iMISS LATENCY: 36.1943 cycles
cpu0_L2C AVERAGE dMISS LATENCY: 80.2976 cycles
cpu0_L2C AVERAGE itMISS LATENCY: 3.06862 cycles
cpu0_L2C AVERAGE dtMISS LATENCY: 8.43206 cycles
cpu0_L2C PAGE CROSSINGS (TLB HIT):         0 
cpu0_L2C PAGE CROSSINGS (TLB MISS):         0 
cpu0_L2C AVERAGE MISS LATENCY: 127.993 cycles
LLC TOTAL       ACCESS:    3346506  HIT:    1178541  MISS:    2167965  iACCESS:    1070179  iHIT:     399874  iMISS:     670305  dACCESS:    2064078  dHIT:     744970  dMISS:    1319108  itACCESS:      60693  itHIT:       9109  itMISS:      51584  dtACCESS:     151556  dtHIT:      24588  dtMISS:     126968
LLC LOAD         ACCESS:     827843  HIT:     293807  MISS:     534036  iACCESS:     237956  iHIT:      94340  iMISS:     143616  dACCESS:     589887  dHIT:     199467  dMISS:     390420  itACCESS:          0  itHIT:          0  itMISS:          0  dtACCESS:          0  dtHIT:          0  dtMISS:          0
LLC RFO          ACCESS:     111467  HIT:      32063  MISS:      79404  iACCESS:          0  iHIT:          0  iMISS:          0  dACCESS:     111467  dHIT:      32063  dMISS:      79404  itACCESS:          0  itHIT:          0  itMISS:          0  dtACCESS:          0  dtHIT:          0  dtMISS:          0
LLC PREFETCH     ACCESS:    2034468  HIT:     668726  MISS:    1365742  iACCESS:     832223  iHIT:     305534  iMISS:     526689  dACCESS:    1202245  dHIT:     363192  dMISS:     839053  itACCESS:          0  itHIT:          0  itMISS:          0  dtACCESS:          0  dtHIT:          0  dtMISS:          0
LLC WRITE        ACCESS:     160479  HIT:     150248  MISS:      10231  iACCESS:          0  iHIT:          0  iMISS:          0  dACCESS:     160479  dHIT:     150248  dMISS:      10231  itACCESS:          0  itHIT:          0  itMISS:          0  dtACCESS:          0  dtHIT:          0  dtMISS:          0
LLC TRANSLATION  ACCESS:     212249  HIT:      33697  MISS:     178552  iACCESS:          0  iHIT:          0  iMISS:          0  dACCESS:          0  dHIT:          0  dMISS:          0  itACCESS:      60693  itHIT:       9109  itMISS:      51584  dtACCESS:     151556  dtHIT:      24588  dtMISS:     126968
LLC PREFETCH  REQUESTED:          0  ISSUED:          0  CROSSED:          0  USEFUL:          0  USELESS:          0
LLC AVERAGE iMISS LATENCY: 46.3142 cycles
LLC AVERAGE dMISS LATENCY: 108.173 cycles
LLC AVERAGE itMISS LATENCY: 4.19524 cycles
LLC AVERAGE dtMISS LATENCY: 11.6705 cycles
LLC PAGE CROSSINGS (TLB HIT):         0 
LLC PAGE CROSSINGS (TLB MISS):         0 
LLC AVERAGE MISS LATENCY: 170.353 cycles

PageTableWalker TOTAL       ACCESS:     113209  
PageTableWalker AVERAGE LATENCY: 5.11402 cycles
PageTableWalker TOTAL LATENCY: 578953 cycles

DRAM Statistics
Channel 0
 RQ ROW_BUFFER_HIT:     576988
  ROW_BUFFER_MISS:    1563338
 AVG DBUS CONGESTED CYCLE:    3.66103
 WQ ROW_BUFFER_HIT:      44753
  ROW_BUFFER_MISS:      43709  FULL:          0

