last_page:0x200000000000000
VMEM_RES_CAP:0x100000
PAGE_SIZE:4096
LOG2_PAGE_SIZE:12
LOG2_PAGE_TABLE_SIZE:9
page_table_levels:5
WARNING: physical memory size is smaller than virtual memory size
FDiP enabled with aggresivity 16

*** ChampSim Multicore Out-of-Order Simulator ***

Warmup Instructions: 50000000
Simulation Instructions: 100000000
Number of CPUs: 1
Small page size: 4096
Large page size: 2097152

CPU 0 Bimodal branch predictor
Basic BTB sets: 1024 ways: 8 indirect buffer size: 4096 RAS size: 64
Instruction page size distrubution: 0
Loading instruction page size distribution from /home/bsc/bsc018186/scratch/itp_asplos25_AE/dump/srv459_ap.pdst
Data page size distrubution: 0
Loading data page size distribution from /home/bsc/bsc018186/scratch/itp_asplos25_AE/dump/srv459_ap.pdst
cpu0_L2C IP-based stride prefetcher
cpu0_L2C is using PTP replacement policy:
	TLB_STRESS_THRESHOLD:0
	PTE_EVICTION_RATIO:0
cpu0_L1D next line prefetcher
CHiRPing...
cpu0_L1I next line prefetcher
Off-chip DRAM Size: 4 GiB Channels: 1 Width: 64-bit Data Rate: 3200 MT/s
Heartbeat CPU 0 instructions: 10000002 cycles: 2500181 heartbeat IPC: 3.99972 cumulative IPC: 3.99972 (Simulation time: 0 hr 0 min 39 sec) 
Heartbeat CPU 0 instructions: 20000001 cycles: 5000205 heartbeat IPC: 3.99997 cumulative IPC: 3.99984 (Simulation time: 0 hr 1 min 19 sec) 
Heartbeat CPU 0 instructions: 30000002 cycles: 7500207 heartbeat IPC: 4 cumulative IPC: 3.99989 (Simulation time: 0 hr 2 min 0 sec) 
Heartbeat CPU 0 instructions: 40000002 cycles: 10000389 heartbeat IPC: 3.99971 cumulative IPC: 3.99985 (Simulation time: 0 hr 2 min 42 sec) 
Heartbeat CPU 0 instructions: 50000002 cycles: 12500401 heartbeat IPC: 3.99999 cumulative IPC: 3.99988 (Simulation time: 0 hr 3 min 22 sec) 
Warmup finished CPU 0 instructions: 50000002 cycles: 12500402 cumulative IPC: 3.99988 (Simulation time: 0 hr 3 min 22 sec) 

Warmup complete CPU 0 instructions: 50000002 cycles: 12500402 (Simulation time: 0 hr 3 min 22 sec) 

Heartbeat CPU 0 instructions: 60000000 cycles: 27168518 heartbeat IPC: 0.681751 cumulative IPC: 0.681751 (Simulation time: 0 hr 4 min 26 sec) 
Heartbeat CPU 0 instructions: 70000000 cycles: 41713173 heartbeat IPC: 0.687538 cumulative IPC: 0.684633 (Simulation time: 0 hr 5 min 31 sec) 
Heartbeat CPU 0 instructions: 80000000 cycles: 55812390 heartbeat IPC: 0.70926 cumulative IPC: 0.692649 (Simulation time: 0 hr 6 min 35 sec) 
Heartbeat CPU 0 instructions: 90000001 cycles: 70185182 heartbeat IPC: 0.69576 cumulative IPC: 0.693424 (Simulation time: 0 hr 7 min 39 sec) 
Heartbeat CPU 0 instructions: 100000002 cycles: 84332996 heartbeat IPC: 0.706824 cumulative IPC: 0.696063 (Simulation time: 0 hr 8 min 44 sec) 
*** Reached end of trace: /gpfs/projects/bsc18/MN4/bsc18/romol/ChampSim/traces/qualcomm_srv/srv459_ap.champsimtrace.xz
Heartbeat CPU 0 instructions: 110000001 cycles: 98112506 heartbeat IPC: 0.725716 cumulative IPC: 0.700836 (Simulation time: 0 hr 9 min 48 sec) 
Heartbeat CPU 0 instructions: 120000002 cycles: 111422687 heartbeat IPC: 0.751305 cumulative IPC: 0.707627 (Simulation time: 0 hr 10 min 51 sec) 
Heartbeat CPU 0 instructions: 130000000 cycles: 125307943 heartbeat IPC: 0.720189 cumulative IPC: 0.709173 (Simulation time: 0 hr 11 min 54 sec) 
Heartbeat CPU 0 instructions: 140000002 cycles: 139005483 heartbeat IPC: 0.730059 cumulative IPC: 0.711434 (Simulation time: 0 hr 12 min 57 sec) 
Heartbeat CPU 0 instructions: 150000000 cycles: 152988034 heartbeat IPC: 0.715177 cumulative IPC: 0.711807 (Simulation time: 0 hr 14 min 1 sec) 
Simulation finished CPU 0 instructions: 100000002 cycles: 140487634 cumulative IPC: 0.711807 (Simulation time: 0 hr 14 min 1 sec) 

Simulation complete CPU 0 instructions: 100000002 cycles: 140487634 (Simulation time: 0 hr 14 min 1 sec) 


ChampSim completed all CPUs

Saving instructions large page distribution to /home/bsc/bsc018186/scratch/itp_asplos25_AE/dump/srv459_ap.pdst...
Saving data large page distribution to /home/bsc/bsc018186/scratch/itp_asplos25_AE/dump/srv459_ap.pdst...
=== Simulation ===
CPU 0 runs /gpfs/projects/bsc18/MN4/bsc18/romol/ChampSim/traces/qualcomm_srv/srv459_ap.champsimtrace.xz

Region of Interest Statistics

CPU 0 cumulative IPC: 0.711807 instructions: 100000002 cycles: 140487634
CPU 0 Branch Prediction Accuracy: 83.3738% MPKI: 29.7268 Average ROB Occupancy at Mispredict: 12.4279
Branch type MPKI
BRANCH_DIRECT_JUMP: 1.02552
BRANCH_INDIRECT: 15.3168
BRANCH_CONDITIONAL: 9.68338
BRANCH_DIRECT_CALL: 1.84683
BRANCH_INDIRECT_CALL: 0.51366
BRANCH_RETURN: 1.34066

Instructions large pages: 0
Instructions small pages: 995
Large page distribution for instructions: 0%

Data large pages: 0
Data small pages: 10329
Large page distribution for data: 0%

cpu0_L1I TOTAL       ACCESS:   35250802  HIT:   26922779  MISS:    8328023  iACCESS:   35250802  iHIT:   26922779  iMISS:    8328023  dACCESS:          0  dHIT:          0  dMISS:          0  itACCESS:          0  itHIT:          0  itMISS:          0  dtACCESS:          0  dtHIT:          0  dtMISS:          0
cpu0_L1I LOAD         ACCESS:   10357256  HIT:    8026504  MISS:    2330752  iACCESS:   10357256  iHIT:    8026504  iMISS:    2330752  dACCESS:          0  dHIT:          0  dMISS:          0  itACCESS:          0  itHIT:          0  itMISS:          0  dtACCESS:          0  dtHIT:          0  dtMISS:          0
cpu0_L1I RFO          ACCESS:          0  HIT:          0  MISS:          0  iACCESS:          0  iHIT:          0  iMISS:          0  dACCESS:          0  dHIT:          0  dMISS:          0  itACCESS:          0  itHIT:          0  itMISS:          0  dtACCESS:          0  dtHIT:          0  dtMISS:          0
cpu0_L1I PREFETCH     ACCESS:   24893546  HIT:   18896275  MISS:    5997271  iACCESS:   24893546  iHIT:   18896275  iMISS:    5997271  dACCESS:          0  dHIT:          0  dMISS:          0  itACCESS:          0  itHIT:          0  itMISS:          0  dtACCESS:          0  dtHIT:          0  dtMISS:          0
cpu0_L1I WRITE        ACCESS:          0  HIT:          0  MISS:          0  iACCESS:          0  iHIT:          0  iMISS:          0  dACCESS:          0  dHIT:          0  dMISS:          0  itACCESS:          0  itHIT:          0  itMISS:          0  dtACCESS:          0  dtHIT:          0  dtMISS:          0
cpu0_L1I TRANSLATION  ACCESS:          0  HIT:          0  MISS:          0  iACCESS:          0  iHIT:          0  iMISS:          0  dACCESS:          0  dHIT:          0  dMISS:          0  itACCESS:          0  itHIT:          0  itMISS:          0  dtACCESS:          0  dtHIT:          0  dtMISS:          0
cpu0_L1I PREFETCH  REQUESTED:   27242548  ISSUED:   27240661  CROSSED:          0  USEFUL:    1888936  USELESS:     622738
cpu0_L1I AVERAGE iMISS LATENCY: 13.9486 cycles
cpu0_L1I AVERAGE dMISS LATENCY: 0 cycles
cpu0_L1I AVERAGE itMISS LATENCY: 0 cycles
cpu0_L1I AVERAGE dtMISS LATENCY: 0 cycles
cpu0_L1I PAGE CROSSINGS (TLB HIT):         0 
cpu0_L1I PAGE CROSSINGS (TLB MISS):         0 
cpu0_L1I AVERAGE MISS LATENCY: 13.9486 cycles
cpu0_ITLB TOTAL       ACCESS:   29120863  HIT:   27164052  MISS:    1956811  iACCESS:   29120863  iHIT:   27164052  iMISS:    1956811  dACCESS:          0  dHIT:          0  dMISS:          0  itACCESS:          0  itHIT:          0  itMISS:          0  dtACCESS:          0  dtHIT:          0  dtMISS:          0
cpu0_ITLB LOAD         ACCESS:   29120863  HIT:   27164052  MISS:    1956811  iACCESS:   29120863  iHIT:   27164052  iMISS:    1956811  dACCESS:          0  dHIT:          0  dMISS:          0  itACCESS:          0  itHIT:          0  itMISS:          0  dtACCESS:          0  dtHIT:          0  dtMISS:          0
cpu0_ITLB RFO          ACCESS:          0  HIT:          0  MISS:          0  iACCESS:          0  iHIT:          0  iMISS:          0  dACCESS:          0  dHIT:          0  dMISS:          0  itACCESS:          0  itHIT:          0  itMISS:          0  dtACCESS:          0  dtHIT:          0  dtMISS:          0
cpu0_ITLB PREFETCH     ACCESS:          0  HIT:          0  MISS:          0  iACCESS:          0  iHIT:          0  iMISS:          0  dACCESS:          0  dHIT:          0  dMISS:          0  itACCESS:          0  itHIT:          0  itMISS:          0  dtACCESS:          0  dtHIT:          0  dtMISS:          0
cpu0_ITLB WRITE        ACCESS:          0  HIT:          0  MISS:          0  iACCESS:          0  iHIT:          0  iMISS:          0  dACCESS:          0  dHIT:          0  dMISS:          0  itACCESS:          0  itHIT:          0  itMISS:          0  dtACCESS:          0  dtHIT:          0  dtMISS:          0
cpu0_ITLB TRANSLATION  ACCESS:          0  HIT:          0  MISS:          0  iACCESS:          0  iHIT:          0  iMISS:          0  dACCESS:          0  dHIT:          0  dMISS:          0  itACCESS:          0  itHIT:          0  itMISS:          0  dtACCESS:          0  dtHIT:          0  dtMISS:          0
cpu0_ITLB PREFETCH  REQUESTED:          0  ISSUED:          0  CROSSED:          0  USEFUL:     320549  USELESS:      65596
cpu0_ITLB AVERAGE iMISS LATENCY: 2.78201 cycles
cpu0_ITLB AVERAGE dMISS LATENCY: 0 cycles
cpu0_ITLB AVERAGE itMISS LATENCY: 0 cycles
cpu0_ITLB AVERAGE dtMISS LATENCY: 0 cycles
cpu0_ITLB PAGE CROSSINGS (TLB HIT):         0 
cpu0_ITLB PAGE CROSSINGS (TLB MISS):         0 
cpu0_ITLB AVERAGE MISS LATENCY: 2.78201 cycles
cpu0_DTLB TOTAL       ACCESS:   27696342  HIT:   25773169  MISS:    1923173  iACCESS:          0  iHIT:          0  iMISS:          0  dACCESS:   27696342  dHIT:   25773169  dMISS:    1923173  itACCESS:          0  itHIT:          0  itMISS:          0  dtACCESS:          0  dtHIT:          0  dtMISS:          0
cpu0_DTLB LOAD         ACCESS:   27696342  HIT:   25773169  MISS:    1923173  iACCESS:          0  iHIT:          0  iMISS:          0  dACCESS:   27696342  dHIT:   25773169  dMISS:    1923173  itACCESS:          0  itHIT:          0  itMISS:          0  dtACCESS:          0  dtHIT:          0  dtMISS:          0
cpu0_DTLB RFO          ACCESS:          0  HIT:          0  MISS:          0  iACCESS:          0  iHIT:          0  iMISS:          0  dACCESS:          0  dHIT:          0  dMISS:          0  itACCESS:          0  itHIT:          0  itMISS:          0  dtACCESS:          0  dtHIT:          0  dtMISS:          0
cpu0_DTLB PREFETCH     ACCESS:          0  HIT:          0  MISS:          0  iACCESS:          0  iHIT:          0  iMISS:          0  dACCESS:          0  dHIT:          0  dMISS:          0  itACCESS:          0  itHIT:          0  itMISS:          0  dtACCESS:          0  dtHIT:          0  dtMISS:          0
cpu0_DTLB WRITE        ACCESS:          0  HIT:          0  MISS:          0  iACCESS:          0  iHIT:          0  iMISS:          0  dACCESS:          0  dHIT:          0  dMISS:          0  itACCESS:          0  itHIT:          0  itMISS:          0  dtACCESS:          0  dtHIT:          0  dtMISS:          0
cpu0_DTLB TRANSLATION  ACCESS:          0  HIT:          0  MISS:          0  iACCESS:          0  iHIT:          0  iMISS:          0  dACCESS:          0  dHIT:          0  dMISS:          0  itACCESS:          0  itHIT:          0  itMISS:          0  dtACCESS:          0  dtHIT:          0  dtMISS:          0
cpu0_DTLB PREFETCH  REQUESTED:          0  ISSUED:          0  CROSSED:          0  USEFUL:          0  USELESS:          0
cpu0_DTLB AVERAGE iMISS LATENCY: 0 cycles
cpu0_DTLB AVERAGE dMISS LATENCY: 9.12709 cycles
cpu0_DTLB AVERAGE itMISS LATENCY: 0 cycles
cpu0_DTLB AVERAGE dtMISS LATENCY: 0 cycles
cpu0_DTLB PAGE CROSSINGS (TLB HIT):         0 
cpu0_DTLB PAGE CROSSINGS (TLB MISS):         0 
cpu0_DTLB AVERAGE MISS LATENCY: 9.12709 cycles
cpu0_STLB TOTAL       ACCESS:    1536339  HIT:    1362673  MISS:     173666  iACCESS:     386169  iHIT:     323088  iMISS:      63081  dACCESS:    1150170  dHIT:    1039585  dMISS:     110585  itACCESS:          0  itHIT:          0  itMISS:          0  dtACCESS:          0  dtHIT:          0  dtMISS:          0
cpu0_STLB LOAD         ACCESS:    1536339  HIT:    1362673  MISS:     173666  iACCESS:     386169  iHIT:     323088  iMISS:      63081  dACCESS:    1150170  dHIT:    1039585  dMISS:     110585  itACCESS:          0  itHIT:          0  itMISS:          0  dtACCESS:          0  dtHIT:          0  dtMISS:          0
cpu0_STLB RFO          ACCESS:          0  HIT:          0  MISS:          0  iACCESS:          0  iHIT:          0  iMISS:          0  dACCESS:          0  dHIT:          0  dMISS:          0  itACCESS:          0  itHIT:          0  itMISS:          0  dtACCESS:          0  dtHIT:          0  dtMISS:          0
cpu0_STLB PREFETCH     ACCESS:          0  HIT:          0  MISS:          0  iACCESS:          0  iHIT:          0  iMISS:          0  dACCESS:          0  dHIT:          0  dMISS:          0  itACCESS:          0  itHIT:          0  itMISS:          0  dtACCESS:          0  dtHIT:          0  dtMISS:          0
cpu0_STLB WRITE        ACCESS:          0  HIT:          0  MISS:          0  iACCESS:          0  iHIT:          0  iMISS:          0  dACCESS:          0  dHIT:          0  dMISS:          0  itACCESS:          0  itHIT:          0  itMISS:          0  dtACCESS:          0  dtHIT:          0  dtMISS:          0
cpu0_STLB TRANSLATION  ACCESS:          0  HIT:          0  MISS:          0  iACCESS:          0  iHIT:          0  iMISS:          0  dACCESS:          0  dHIT:          0  dMISS:          0  itACCESS:          0  itHIT:          0  itMISS:          0  dtACCESS:          0  dtHIT:          0  dtMISS:          0
cpu0_STLB PREFETCH  REQUESTED:          0  ISSUED:          0  CROSSED:          0  USEFUL:          0  USELESS:          0
cpu0_STLB AVERAGE iMISS LATENCY: 13.7674 cycles
cpu0_STLB AVERAGE dMISS LATENCY: 48.2655 cycles
cpu0_STLB AVERAGE itMISS LATENCY: 0 cycles
cpu0_STLB AVERAGE dtMISS LATENCY: 0 cycles
cpu0_STLB PAGE CROSSINGS (TLB HIT):         0 
cpu0_STLB PAGE CROSSINGS (TLB MISS):         0 
cpu0_STLB AVERAGE MISS LATENCY: 62.0328 cycles
cpu0_L1D TOTAL       ACCESS:   41444102  HIT:   37950982  MISS:    3493120  iACCESS:          0  iHIT:          0  iMISS:          0  dACCESS:   41210392  dHIT:   37929544  dMISS:    3280848  itACCESS:      68665  itHIT:      10217  itMISS:      58448  dtACCESS:     165045  dtHIT:      11221  dtMISS:     153824
cpu0_L1D LOAD         ACCESS:   18937373  HIT:   17449729  MISS:    1487644  iACCESS:          0  iHIT:          0  iMISS:          0  dACCESS:   18937373  dHIT:   17449729  dMISS:    1487644  itACCESS:          0  itHIT:          0  itMISS:          0  dtACCESS:          0  dtHIT:          0  dtMISS:          0
cpu0_L1D RFO          ACCESS:          0  HIT:          0  MISS:          0  iACCESS:          0  iHIT:          0  iMISS:          0  dACCESS:          0  dHIT:          0  dMISS:          0  itACCESS:          0  itHIT:          0  itMISS:          0  dtACCESS:          0  dtHIT:          0  dtMISS:          0
cpu0_L1D PREFETCH     ACCESS:   12100372  HIT:   10745301  MISS:    1355071  iACCESS:          0  iHIT:          0  iMISS:          0  dACCESS:   12100372  dHIT:   10745301  dMISS:    1355071  itACCESS:          0  itHIT:          0  itMISS:          0  dtACCESS:          0  dtHIT:          0  dtMISS:          0
cpu0_L1D WRITE        ACCESS:   10172647  HIT:    9734514  MISS:     438133  iACCESS:          0  iHIT:          0  iMISS:          0  dACCESS:   10172647  dHIT:    9734514  dMISS:     438133  itACCESS:          0  itHIT:          0  itMISS:          0  dtACCESS:          0  dtHIT:          0  dtMISS:          0
cpu0_L1D TRANSLATION  ACCESS:     233710  HIT:      21438  MISS:     212272  iACCESS:          0  iHIT:          0  iMISS:          0  dACCESS:          0  dHIT:          0  dMISS:          0  itACCESS:      68665  itHIT:      10217  itMISS:      58448  dtACCESS:     165045  dtHIT:      11221  dtMISS:     153824
cpu0_L1D PREFETCH  REQUESTED:   18937373  ISSUED:   16922308  CROSSED:          0  USEFUL:     304957  USELESS:     694617
cpu0_L1D AVERAGE iMISS LATENCY: 0 cycles
cpu0_L1D AVERAGE dMISS LATENCY: 35.351 cycles
cpu0_L1D AVERAGE itMISS LATENCY: 0.527182 cycles
cpu0_L1D AVERAGE dtMISS LATENCY: 1.67934 cycles
cpu0_L1D PAGE CROSSINGS (TLB HIT):         0 
cpu0_L1D PAGE CROSSINGS (TLB MISS):         0 
cpu0_L1D AVERAGE MISS LATENCY: 37.5576 cycles
cpu0_L2C TOTAL       ACCESS:    6892706  HIT:    1223773  MISS:    5668933  iACCESS:    3260358  iHIT:     690539  iMISS:    2569819  dACCESS:    3427993  dHIT:     371086  dMISS:    3056907  itACCESS:      58448  itHIT:      47367  itMISS:      11081  dtACCESS:     145907  dtHIT:     114781  dtMISS:      31126
cpu0_L2C LOAD         ACCESS:    1701387  HIT:     132650  MISS:    1568737  iACCESS:     781161  iHIT:      96912  iMISS:     684249  dACCESS:     920226  dHIT:      35738  dMISS:     884488  itACCESS:          0  itHIT:          0  itMISS:          0  dtACCESS:          0  dtHIT:          0  dtMISS:          0
cpu0_L2C RFO          ACCESS:     156051  HIT:       9753  MISS:     146298  iACCESS:          0  iHIT:          0  iMISS:          0  dACCESS:     156051  dHIT:       9753  dMISS:     146298  itACCESS:          0  itHIT:          0  itMISS:          0  dtACCESS:          0  dtHIT:          0  dtMISS:          0
cpu0_L2C PREFETCH     ACCESS:    4547180  HIT:     863455  MISS:    3683725  iACCESS:    2479197  iHIT:     593627  iMISS:    1885570  dACCESS:    2067983  dHIT:     269828  dMISS:    1798155  itACCESS:          0  itHIT:          0  itMISS:          0  dtACCESS:          0  dtHIT:          0  dtMISS:          0
cpu0_L2C WRITE        ACCESS:     283733  HIT:      55767  MISS:     227966  iACCESS:          0  iHIT:          0  iMISS:          0  dACCESS:     283733  dHIT:      55767  dMISS:     227966  itACCESS:          0  itHIT:          0  itMISS:          0  dtACCESS:          0  dtHIT:          0  dtMISS:          0
cpu0_L2C TRANSLATION  ACCESS:     204355  HIT:     162148  MISS:      42207  iACCESS:          0  iHIT:          0  iMISS:          0  dACCESS:          0  dHIT:          0  dMISS:          0  itACCESS:      58448  itHIT:      47367  itMISS:      11081  dtACCESS:     145907  dtHIT:     114781  dtMISS:      31126
cpu0_L2C PREFETCH  REQUESTED:    1313553  ISSUED:    1313553  CROSSED:          0  USEFUL:     408412  USELESS:     372861
cpu0_L2C AVERAGE iMISS LATENCY: 15.2149 cycles
cpu0_L2C AVERAGE dMISS LATENCY: 25.0897 cycles
cpu0_L2C AVERAGE itMISS LATENCY: 0.229901 cycles
cpu0_L2C AVERAGE dtMISS LATENCY: 0.796437 cycles
cpu0_L2C PAGE CROSSINGS (TLB HIT):         0 
cpu0_L2C PAGE CROSSINGS (TLB MISS):         0 
cpu0_L2C AVERAGE MISS LATENCY: 41.3309 cycles
LLC TOTAL       ACCESS:    5595542  HIT:    4761659  MISS:     833883  iACCESS:    2519337  iHIT:    2261511  iMISS:     257826  dACCESS:    3033998  dHIT:    2486551  dMISS:     547447  itACCESS:      11081  itHIT:       4781  itMISS:       6300  dtACCESS:      31126  dtHIT:       8816  dtMISS:      22310
LLC LOAD         ACCESS:    1567027  HIT:    1370203  MISS:     196824  iACCESS:     683012  iHIT:     626764  iMISS:      56248  dACCESS:     884015  dHIT:     743439  dMISS:     140576  itACCESS:          0  itHIT:          0  itMISS:          0  dtACCESS:          0  dtHIT:          0  dtMISS:          0
LLC RFO          ACCESS:     146286  HIT:     103943  MISS:      42343  iACCESS:          0  iHIT:          0  iMISS:          0  dACCESS:     146286  dHIT:     103943  dMISS:      42343  itACCESS:          0  itHIT:          0  itMISS:          0  dtACCESS:          0  dtHIT:          0  dtMISS:          0
LLC PREFETCH     ACCESS:    3581992  HIT:    3015889  MISS:     566103  iACCESS:    1836325  iHIT:    1634747  iMISS:     201578  dACCESS:    1745667  dHIT:    1381142  dMISS:     364525  itACCESS:          0  itHIT:          0  itMISS:          0  dtACCESS:          0  dtHIT:          0  dtMISS:          0
LLC WRITE        ACCESS:     258030  HIT:     258027  MISS:          3  iACCESS:          0  iHIT:          0  iMISS:          0  dACCESS:     258030  dHIT:     258027  dMISS:          3  itACCESS:          0  itHIT:          0  itMISS:          0  dtACCESS:          0  dtHIT:          0  dtMISS:          0
LLC TRANSLATION  ACCESS:      42207  HIT:      13597  MISS:      28610  iACCESS:          0  iHIT:          0  iMISS:          0  dACCESS:          0  dHIT:          0  dMISS:          0  itACCESS:      11081  itHIT:       4781  itMISS:       6300  dtACCESS:      31126  dtHIT:       8816  dtMISS:      22310
LLC PREFETCH  REQUESTED:          0  ISSUED:          0  CROSSED:          0  USEFUL:          0  USELESS:          0
LLC AVERAGE iMISS LATENCY: 45.1244 cycles
LLC AVERAGE dMISS LATENCY: 106.267 cycles
LLC AVERAGE itMISS LATENCY: 1.30328 cycles
LLC AVERAGE dtMISS LATENCY: 4.68118 cycles
LLC PAGE CROSSINGS (TLB HIT):         0 
LLC PAGE CROSSINGS (TLB MISS):         0 
LLC AVERAGE MISS LATENCY: 157.375 cycles

PageTableWalker TOTAL       ACCESS:      85921  
PageTableWalker AVERAGE LATENCY: 4.18888 cycles
PageTableWalker TOTAL LATENCY: 359912 cycles

DRAM Statistics
Channel 0
 RQ ROW_BUFFER_HIT:     236453
  ROW_BUFFER_MISS:     597358
 AVG DBUS CONGESTED CYCLE:      3.631
 WQ ROW_BUFFER_HIT:      23079
  ROW_BUFFER_MISS:      31655  FULL:          0

