last_page:0x200000000000000
VMEM_RES_CAP:0x100000
PAGE_SIZE:4096
LOG2_PAGE_SIZE:12
LOG2_PAGE_TABLE_SIZE:9
page_table_levels:5
WARNING: physical memory size is smaller than virtual memory size
FDiP enabled with aggresivity 16

*** ChampSim Multicore Out-of-Order Simulator ***

Warmup Instructions: 50000000
Simulation Instructions: 100000000
Number of CPUs: 1
Small page size: 4096
Large page size: 2097152

CPU 0 Bimodal branch predictor
Basic BTB sets: 1024 ways: 8 indirect buffer size: 4096 RAS size: 64
Instruction page size distrubution: 0
Loading instruction page size distribution from /home/bsc/bsc018186/scratch/itp_asplos25_AE/dump/srv413_ap.pdst
Data page size distrubution: 0
Loading data page size distribution from /home/bsc/bsc018186/scratch/itp_asplos25_AE/dump/srv413_ap.pdst
cpu0_L2C IP-based stride prefetcher
cpu0_L2C is using PTP replacement policy:
	TLB_STRESS_THRESHOLD:0
	PTE_EVICTION_RATIO:0
cpu0_L1D next line prefetcher
cpu0_STLB using iTP with max lru@8
cpu0_STLB using iTP with instr@0 and data@2
Init sat counter with 3 bits (max:50).
cpu0_L1I next line prefetcher
Off-chip DRAM Size: 4 GiB Channels: 1 Width: 64-bit Data Rate: 3200 MT/s
Heartbeat CPU 0 instructions: 10000002 cycles: 2500154 heartbeat IPC: 3.99976 cumulative IPC: 3.99976 (Simulation time: 0 hr 0 min 41 sec) 
Heartbeat CPU 0 instructions: 20000001 cycles: 5000156 heartbeat IPC: 4 cumulative IPC: 3.99988 (Simulation time: 0 hr 1 min 25 sec) 
Heartbeat CPU 0 instructions: 30000001 cycles: 7500156 heartbeat IPC: 4 cumulative IPC: 3.99992 (Simulation time: 0 hr 2 min 9 sec) 
Heartbeat CPU 0 instructions: 40000001 cycles: 10000167 heartbeat IPC: 3.99999 cumulative IPC: 3.99994 (Simulation time: 0 hr 2 min 52 sec) 
Heartbeat CPU 0 instructions: 50000003 cycles: 12500184 heartbeat IPC: 3.99998 cumulative IPC: 3.99995 (Simulation time: 0 hr 3 min 33 sec) 
Warmup finished CPU 0 instructions: 50000003 cycles: 12500185 cumulative IPC: 3.99995 (Simulation time: 0 hr 3 min 33 sec) 

Warmup complete CPU 0 instructions: 50000003 cycles: 12500185 (Simulation time: 0 hr 3 min 33 sec) 

Heartbeat CPU 0 instructions: 60000003 cycles: 26290986 heartbeat IPC: 0.725121 cumulative IPC: 0.725122 (Simulation time: 0 hr 4 min 35 sec) 
Heartbeat CPU 0 instructions: 70000003 cycles: 37929181 heartbeat IPC: 0.85924 cumulative IPC: 0.786504 (Simulation time: 0 hr 5 min 36 sec) 
Heartbeat CPU 0 instructions: 80000000 cycles: 47202681 heartbeat IPC: 1.07835 cumulative IPC: 0.864492 (Simulation time: 0 hr 6 min 41 sec) 
Heartbeat CPU 0 instructions: 90000002 cycles: 61112671 heartbeat IPC: 0.718908 cumulative IPC: 0.822834 (Simulation time: 0 hr 7 min 49 sec) 
Heartbeat CPU 0 instructions: 100000001 cycles: 75526247 heartbeat IPC: 0.693791 cumulative IPC: 0.793323 (Simulation time: 0 hr 8 min 59 sec) 
*** Reached end of trace: /gpfs/projects/bsc18/MN4/bsc18/romol/ChampSim/traces/qualcomm_srv/srv413_ap.champsimtrace.xz
Heartbeat CPU 0 instructions: 110000001 cycles: 88935773 heartbeat IPC: 0.745739 cumulative IPC: 0.784975 (Simulation time: 0 hr 10 min 7 sec) 
Heartbeat CPU 0 instructions: 120000000 cycles: 103510321 heartbeat IPC: 0.686128 cumulative IPC: 0.769146 (Simulation time: 0 hr 11 min 17 sec) 
Heartbeat CPU 0 instructions: 130000001 cycles: 116892333 heartbeat IPC: 0.747272 cumulative IPC: 0.766342 (Simulation time: 0 hr 12 min 26 sec) 
Heartbeat CPU 0 instructions: 140000003 cycles: 131394968 heartbeat IPC: 0.689531 cumulative IPC: 0.756972 (Simulation time: 0 hr 13 min 29 sec) 
Heartbeat CPU 0 instructions: 150000004 cycles: 144977435 heartbeat IPC: 0.736244 cumulative IPC: 0.754847 (Simulation time: 0 hr 14 min 35 sec) 
Simulation finished CPU 0 instructions: 100000001 cycles: 132477251 cumulative IPC: 0.754847 (Simulation time: 0 hr 14 min 35 sec) 

Simulation complete CPU 0 instructions: 100000001 cycles: 132477251 (Simulation time: 0 hr 14 min 35 sec) 


ChampSim completed all CPUs

Saving instructions large page distribution to /home/bsc/bsc018186/scratch/itp_asplos25_AE/dump/srv413_ap.pdst...
Saving data large page distribution to /home/bsc/bsc018186/scratch/itp_asplos25_AE/dump/srv413_ap.pdst...
=== Simulation ===
CPU 0 runs /gpfs/projects/bsc18/MN4/bsc18/romol/ChampSim/traces/qualcomm_srv/srv413_ap.champsimtrace.xz

Region of Interest Statistics

CPU 0 cumulative IPC: 0.754847 instructions: 100000001 cycles: 132477251
CPU 0 Branch Prediction Accuracy: 85.7708% MPKI: 27.3215 Average ROB Occupancy at Mispredict: 14.2688
Branch type MPKI
BRANCH_DIRECT_JUMP: 0.85247
BRANCH_INDIRECT: 14.2733
BRANCH_CONDITIONAL: 8.85647
BRANCH_DIRECT_CALL: 1.63104
BRANCH_INDIRECT_CALL: 0.52265
BRANCH_RETURN: 1.18553

Instructions large pages: 0
Instructions small pages: 9695
Large page distribution for instructions: 0%

Data large pages: 0
Data small pages: 8720
Large page distribution for data: 0%

cpu0_L1I TOTAL       ACCESS:   34320483  HIT:   26661934  MISS:    7658549  iACCESS:   34320483  iHIT:   26661934  iMISS:    7658549  dACCESS:          0  dHIT:          0  dMISS:          0  itACCESS:          0  itHIT:          0  itMISS:          0  dtACCESS:          0  dtHIT:          0  dtMISS:          0
cpu0_L1I LOAD         ACCESS:    9239963  HIT:    7094828  MISS:    2145135  iACCESS:    9239963  iHIT:    7094828  iMISS:    2145135  dACCESS:          0  dHIT:          0  dMISS:          0  itACCESS:          0  itHIT:          0  itMISS:          0  dtACCESS:          0  dtHIT:          0  dtMISS:          0
cpu0_L1I RFO          ACCESS:          0  HIT:          0  MISS:          0  iACCESS:          0  iHIT:          0  iMISS:          0  dACCESS:          0  dHIT:          0  dMISS:          0  itACCESS:          0  itHIT:          0  itMISS:          0  dtACCESS:          0  dtHIT:          0  dtMISS:          0
cpu0_L1I PREFETCH     ACCESS:   25080520  HIT:   19567106  MISS:    5513414  iACCESS:   25080520  iHIT:   19567106  iMISS:    5513414  dACCESS:          0  dHIT:          0  dMISS:          0  itACCESS:          0  itHIT:          0  itMISS:          0  dtACCESS:          0  dtHIT:          0  dtMISS:          0
cpu0_L1I WRITE        ACCESS:          0  HIT:          0  MISS:          0  iACCESS:          0  iHIT:          0  iMISS:          0  dACCESS:          0  dHIT:          0  dMISS:          0  itACCESS:          0  itHIT:          0  itMISS:          0  dtACCESS:          0  dtHIT:          0  dtMISS:          0
cpu0_L1I TRANSLATION  ACCESS:          0  HIT:          0  MISS:          0  iACCESS:          0  iHIT:          0  iMISS:          0  dACCESS:          0  dHIT:          0  dMISS:          0  itACCESS:          0  itHIT:          0  itMISS:          0  dtACCESS:          0  dtHIT:          0  dtMISS:          0
cpu0_L1I PREFETCH  REQUESTED:   27079768  ISSUED:   27075450  CROSSED:          0  USEFUL:    1723836  USELESS:     565492
cpu0_L1I AVERAGE iMISS LATENCY: 13.8525 cycles
cpu0_L1I AVERAGE dMISS LATENCY: 0 cycles
cpu0_L1I AVERAGE itMISS LATENCY: 0 cycles
cpu0_L1I AVERAGE dtMISS LATENCY: 0 cycles
cpu0_L1I PAGE CROSSINGS (TLB HIT):         0 
cpu0_L1I PAGE CROSSINGS (TLB MISS):         0 
cpu0_L1I AVERAGE MISS LATENCY: 13.8525 cycles
cpu0_ITLB TOTAL       ACCESS:   28445096  HIT:   26682917  MISS:    1762179  iACCESS:   28445096  iHIT:   26682917  iMISS:    1762179  dACCESS:          0  dHIT:          0  dMISS:          0  itACCESS:          0  itHIT:          0  itMISS:          0  dtACCESS:          0  dtHIT:          0  dtMISS:          0
cpu0_ITLB LOAD         ACCESS:   28445096  HIT:   26682917  MISS:    1762179  iACCESS:   28445096  iHIT:   26682917  iMISS:    1762179  dACCESS:          0  dHIT:          0  dMISS:          0  itACCESS:          0  itHIT:          0  itMISS:          0  dtACCESS:          0  dtHIT:          0  dtMISS:          0
cpu0_ITLB RFO          ACCESS:          0  HIT:          0  MISS:          0  iACCESS:          0  iHIT:          0  iMISS:          0  dACCESS:          0  dHIT:          0  dMISS:          0  itACCESS:          0  itHIT:          0  itMISS:          0  dtACCESS:          0  dtHIT:          0  dtMISS:          0
cpu0_ITLB PREFETCH     ACCESS:          0  HIT:          0  MISS:          0  iACCESS:          0  iHIT:          0  iMISS:          0  dACCESS:          0  dHIT:          0  dMISS:          0  itACCESS:          0  itHIT:          0  itMISS:          0  dtACCESS:          0  dtHIT:          0  dtMISS:          0
cpu0_ITLB WRITE        ACCESS:          0  HIT:          0  MISS:          0  iACCESS:          0  iHIT:          0  iMISS:          0  dACCESS:          0  dHIT:          0  dMISS:          0  itACCESS:          0  itHIT:          0  itMISS:          0  dtACCESS:          0  dtHIT:          0  dtMISS:          0
cpu0_ITLB TRANSLATION  ACCESS:          0  HIT:          0  MISS:          0  iACCESS:          0  iHIT:          0  iMISS:          0  dACCESS:          0  dHIT:          0  dMISS:          0  itACCESS:          0  itHIT:          0  itMISS:          0  dtACCESS:          0  dtHIT:          0  dtMISS:          0
cpu0_ITLB PREFETCH  REQUESTED:          0  ISSUED:          0  CROSSED:          0  USEFUL:     290388  USELESS:      54947
cpu0_ITLB AVERAGE iMISS LATENCY: 1.85523 cycles
cpu0_ITLB AVERAGE dMISS LATENCY: 0 cycles
cpu0_ITLB AVERAGE itMISS LATENCY: 0 cycles
cpu0_ITLB AVERAGE dtMISS LATENCY: 0 cycles
cpu0_ITLB PAGE CROSSINGS (TLB HIT):         0 
cpu0_ITLB PAGE CROSSINGS (TLB MISS):         0 
cpu0_ITLB AVERAGE MISS LATENCY: 1.85523 cycles
cpu0_DTLB TOTAL       ACCESS:   29418316  HIT:   25190759  MISS:    4227557  iACCESS:          0  iHIT:          0  iMISS:          0  dACCESS:   29418316  dHIT:   25190759  dMISS:    4227557  itACCESS:          0  itHIT:          0  itMISS:          0  dtACCESS:          0  dtHIT:          0  dtMISS:          0
cpu0_DTLB LOAD         ACCESS:   29418316  HIT:   25190759  MISS:    4227557  iACCESS:          0  iHIT:          0  iMISS:          0  dACCESS:   29418316  dHIT:   25190759  dMISS:    4227557  itACCESS:          0  itHIT:          0  itMISS:          0  dtACCESS:          0  dtHIT:          0  dtMISS:          0
cpu0_DTLB RFO          ACCESS:          0  HIT:          0  MISS:          0  iACCESS:          0  iHIT:          0  iMISS:          0  dACCESS:          0  dHIT:          0  dMISS:          0  itACCESS:          0  itHIT:          0  itMISS:          0  dtACCESS:          0  dtHIT:          0  dtMISS:          0
cpu0_DTLB PREFETCH     ACCESS:          0  HIT:          0  MISS:          0  iACCESS:          0  iHIT:          0  iMISS:          0  dACCESS:          0  dHIT:          0  dMISS:          0  itACCESS:          0  itHIT:          0  itMISS:          0  dtACCESS:          0  dtHIT:          0  dtMISS:          0
cpu0_DTLB WRITE        ACCESS:          0  HIT:          0  MISS:          0  iACCESS:          0  iHIT:          0  iMISS:          0  dACCESS:          0  dHIT:          0  dMISS:          0  itACCESS:          0  itHIT:          0  itMISS:          0  dtACCESS:          0  dtHIT:          0  dtMISS:          0
cpu0_DTLB TRANSLATION  ACCESS:          0  HIT:          0  MISS:          0  iACCESS:          0  iHIT:          0  iMISS:          0  dACCESS:          0  dHIT:          0  dMISS:          0  itACCESS:          0  itHIT:          0  itMISS:          0  dtACCESS:          0  dtHIT:          0  dtMISS:          0
cpu0_DTLB PREFETCH  REQUESTED:          0  ISSUED:          0  CROSSED:          0  USEFUL:          0  USELESS:          0
cpu0_DTLB AVERAGE iMISS LATENCY: 0 cycles
cpu0_DTLB AVERAGE dMISS LATENCY: 6.33047 cycles
cpu0_DTLB AVERAGE itMISS LATENCY: 0 cycles
cpu0_DTLB AVERAGE dtMISS LATENCY: 0 cycles
cpu0_DTLB PAGE CROSSINGS (TLB HIT):         0 
cpu0_DTLB PAGE CROSSINGS (TLB MISS):         0 
cpu0_DTLB AVERAGE MISS LATENCY: 6.33047 cycles
cpu0_STLB TOTAL       ACCESS:    2572212  HIT:    2454227  MISS:     117985  iACCESS:     345369  iHIT:     339110  iMISS:       6259  dACCESS:    2226843  dHIT:    2115117  dMISS:     111726  itACCESS:          0  itHIT:          0  itMISS:          0  dtACCESS:          0  dtHIT:          0  dtMISS:          0
cpu0_STLB LOAD         ACCESS:    2572212  HIT:    2454227  MISS:     117985  iACCESS:     345369  iHIT:     339110  iMISS:       6259  dACCESS:    2226843  dHIT:    2115117  dMISS:     111726  itACCESS:          0  itHIT:          0  itMISS:          0  dtACCESS:          0  dtHIT:          0  dtMISS:          0
cpu0_STLB RFO          ACCESS:          0  HIT:          0  MISS:          0  iACCESS:          0  iHIT:          0  iMISS:          0  dACCESS:          0  dHIT:          0  dMISS:          0  itACCESS:          0  itHIT:          0  itMISS:          0  dtACCESS:          0  dtHIT:          0  dtMISS:          0
cpu0_STLB PREFETCH     ACCESS:          0  HIT:          0  MISS:          0  iACCESS:          0  iHIT:          0  iMISS:          0  dACCESS:          0  dHIT:          0  dMISS:          0  itACCESS:          0  itHIT:          0  itMISS:          0  dtACCESS:          0  dtHIT:          0  dtMISS:          0
cpu0_STLB WRITE        ACCESS:          0  HIT:          0  MISS:          0  iACCESS:          0  iHIT:          0  iMISS:          0  dACCESS:          0  dHIT:          0  dMISS:          0  itACCESS:          0  itHIT:          0  itMISS:          0  dtACCESS:          0  dtHIT:          0  dtMISS:          0
cpu0_STLB TRANSLATION  ACCESS:          0  HIT:          0  MISS:          0  iACCESS:          0  iHIT:          0  iMISS:          0  dACCESS:          0  dHIT:          0  dMISS:          0  itACCESS:          0  itHIT:          0  itMISS:          0  dtACCESS:          0  dtHIT:          0  dtMISS:          0
cpu0_STLB PREFETCH  REQUESTED:          0  ISSUED:          0  CROSSED:          0  USEFUL:          0  USELESS:          0
cpu0_STLB AVERAGE iMISS LATENCY: 5.01471 cycles
cpu0_STLB AVERAGE dMISS LATENCY: 74.5147 cycles
cpu0_STLB AVERAGE itMISS LATENCY: 0 cycles
cpu0_STLB AVERAGE dtMISS LATENCY: 0 cycles
cpu0_STLB PAGE CROSSINGS (TLB HIT):         0 
cpu0_STLB PAGE CROSSINGS (TLB MISS):         0 
cpu0_STLB AVERAGE MISS LATENCY: 79.5294 cycles
cpu0_L1D TOTAL       ACCESS:   45020380  HIT:   38480953  MISS:    6539427  iACCESS:          0  iHIT:          0  iMISS:          0  dACCESS:   44841418  dHIT:   38470164  dMISS:    6371254  itACCESS:       7509  itHIT:        648  itMISS:       6861  dtACCESS:     171453  dtHIT:      10141  dtMISS:     161312
cpu0_L1D LOAD         ACCESS:   21862916  HIT:   18128574  MISS:    3734342  iACCESS:          0  iHIT:          0  iMISS:          0  dACCESS:   21862916  dHIT:   18128574  dMISS:    3734342  itACCESS:          0  itHIT:          0  itMISS:          0  dtACCESS:          0  dtHIT:          0  dtMISS:          0
cpu0_L1D RFO          ACCESS:          0  HIT:          0  MISS:          0  iACCESS:          0  iHIT:          0  iMISS:          0  dACCESS:          0  dHIT:          0  dMISS:          0  itACCESS:          0  itHIT:          0  itMISS:          0  dtACCESS:          0  dtHIT:          0  dtMISS:          0
cpu0_L1D PREFETCH     ACCESS:   13184398  HIT:   10986158  MISS:    2198240  iACCESS:          0  iHIT:          0  iMISS:          0  dACCESS:   13184398  dHIT:   10986158  dMISS:    2198240  itACCESS:          0  itHIT:          0  itMISS:          0  dtACCESS:          0  dtHIT:          0  dtMISS:          0
cpu0_L1D WRITE        ACCESS:    9794104  HIT:    9355432  MISS:     438672  iACCESS:          0  iHIT:          0  iMISS:          0  dACCESS:    9794104  dHIT:    9355432  dMISS:     438672  itACCESS:          0  itHIT:          0  itMISS:          0  dtACCESS:          0  dtHIT:          0  dtMISS:          0
cpu0_L1D TRANSLATION  ACCESS:     178962  HIT:      10789  MISS:     168173  iACCESS:          0  iHIT:          0  iMISS:          0  dACCESS:          0  dHIT:          0  dMISS:          0  itACCESS:       7509  itHIT:        648  itMISS:       6861  dtACCESS:     171453  dtHIT:      10141  dtMISS:     161312
cpu0_L1D PREFETCH  REQUESTED:   21862916  ISSUED:   17228697  CROSSED:          0  USEFUL:     274734  USELESS:     687247
cpu0_L1D AVERAGE iMISS LATENCY: 0 cycles
cpu0_L1D AVERAGE dMISS LATENCY: 22.5137 cycles
cpu0_L1D AVERAGE itMISS LATENCY: 0.0759122 cycles
cpu0_L1D AVERAGE dtMISS LATENCY: 1.01075 cycles
cpu0_L1D PAGE CROSSINGS (TLB HIT):         0 
cpu0_L1D PAGE CROSSINGS (TLB MISS):         0 
cpu0_L1D AVERAGE MISS LATENCY: 23.6004 cycles
cpu0_L2C TOTAL       ACCESS:    7688303  HIT:    1527320  MISS:    6160983  iACCESS:    2958373  iHIT:     651839  iMISS:    2306534  dACCESS:    4573709  dHIT:     756750  dMISS:    3816959  itACCESS:       6767  itHIT:       3571  itMISS:       3196  dtACCESS:     149454  dtHIT:     115160  dtMISS:      34294
cpu0_L2C LOAD         ACCESS:    2901454  HIT:     510144  MISS:    2391310  iACCESS:     703818  iHIT:     103770  iMISS:     600048  dACCESS:    2197636  dHIT:     406374  dMISS:    1791262  itACCESS:          0  itHIT:          0  itMISS:          0  dtACCESS:          0  dtHIT:          0  dtMISS:          0
cpu0_L2C RFO          ACCESS:     160545  HIT:      25863  MISS:     134682  iACCESS:          0  iHIT:          0  iMISS:          0  dACCESS:     160545  dHIT:      25863  dMISS:     134682  itACCESS:          0  itHIT:          0  itMISS:          0  dtACCESS:          0  dtHIT:          0  dtMISS:          0
cpu0_L2C PREFETCH     ACCESS:    4215771  HIT:     823131  MISS:    3392640  iACCESS:    2254555  iHIT:     548069  iMISS:    1706486  dACCESS:    1961216  dHIT:     275062  dMISS:    1686154  itACCESS:          0  itHIT:          0  itMISS:          0  dtACCESS:          0  dtHIT:          0  dtMISS:          0
cpu0_L2C WRITE        ACCESS:     254312  HIT:      49451  MISS:     204861  iACCESS:          0  iHIT:          0  iMISS:          0  dACCESS:     254312  dHIT:      49451  dMISS:     204861  itACCESS:          0  itHIT:          0  itMISS:          0  dtACCESS:          0  dtHIT:          0  dtMISS:          0
cpu0_L2C TRANSLATION  ACCESS:     156221  HIT:     118731  MISS:      37490  iACCESS:          0  iHIT:          0  iMISS:          0  dACCESS:          0  dHIT:          0  dMISS:          0  itACCESS:       6767  itHIT:       3571  itMISS:       3196  dtACCESS:     149454  dtHIT:     115160  dtMISS:      34294
cpu0_L2C PREFETCH  REQUESTED:    1256615  ISSUED:    1256615  CROSSED:          0  USEFUL:     371759  USELESS:     354585
cpu0_L2C AVERAGE iMISS LATENCY: 12.7557 cycles
cpu0_L2C AVERAGE dMISS LATENCY: 24.4102 cycles
cpu0_L2C AVERAGE itMISS LATENCY: 0.0701525 cycles
cpu0_L2C AVERAGE dtMISS LATENCY: 0.847767 cycles
cpu0_L2C PAGE CROSSINGS (TLB HIT):         0 
cpu0_L2C PAGE CROSSINGS (TLB MISS):         0 
cpu0_L2C AVERAGE MISS LATENCY: 38.0837 cycles
LLC TOTAL       ACCESS:    6077982  HIT:    5313738  MISS:     764244  iACCESS:    2254754  iHIT:    2015477  iMISS:     239277  dACCESS:    3785738  dHIT:    3288310  dMISS:     497428  itACCESS:       3196  itHIT:       1069  itMISS:       2127  dtACCESS:      34294  dtHIT:       8882  dtMISS:      25412
LLC LOAD         ACCESS:    2389099  HIT:    2212126  MISS:     176973  iACCESS:     598662  iHIT:     548775  iMISS:      49887  dACCESS:    1790437  dHIT:    1663351  dMISS:     127086  itACCESS:          0  itHIT:          0  itMISS:          0  dtACCESS:          0  dtHIT:          0  dtMISS:          0
LLC RFO          ACCESS:     134682  HIT:      98034  MISS:      36648  iACCESS:          0  iHIT:          0  iMISS:          0  dACCESS:     134682  dHIT:      98034  dMISS:      36648  itACCESS:          0  itHIT:          0  itMISS:          0  dtACCESS:          0  dtHIT:          0  dtMISS:          0
LLC PREFETCH     ACCESS:    3283834  HIT:    2760750  MISS:     523084  iACCESS:    1656092  iHIT:    1466702  iMISS:     189390  dACCESS:    1627742  dHIT:    1294048  dMISS:     333694  itACCESS:          0  itHIT:          0  itMISS:          0  dtACCESS:          0  dtHIT:          0  dtMISS:          0
LLC WRITE        ACCESS:     232877  HIT:     232877  MISS:          0  iACCESS:          0  iHIT:          0  iMISS:          0  dACCESS:     232877  dHIT:     232877  dMISS:          0  itACCESS:          0  itHIT:          0  itMISS:          0  dtACCESS:          0  dtHIT:          0  dtMISS:          0
LLC TRANSLATION  ACCESS:      37490  HIT:       9951  MISS:      27539  iACCESS:          0  iHIT:          0  iMISS:          0  dACCESS:          0  dHIT:          0  dMISS:          0  itACCESS:       3196  itHIT:       1069  itMISS:       2127  dtACCESS:      34294  dtHIT:       8882  dtMISS:      25412
LLC PREFETCH  REQUESTED:          0  ISSUED:          0  CROSSED:          0  USEFUL:          0  USELESS:          0
LLC AVERAGE iMISS LATENCY: 45.8821 cycles
LLC AVERAGE dMISS LATENCY: 106.736 cycles
LLC AVERAGE itMISS LATENCY: 0.483527 cycles
LLC AVERAGE dtMISS LATENCY: 5.95143 cycles
LLC PAGE CROSSINGS (TLB HIT):         0 
LLC PAGE CROSSINGS (TLB MISS):         0 
LLC AVERAGE MISS LATENCY: 159.053 cycles

PageTableWalker TOTAL       ACCESS:      65216  
PageTableWalker AVERAGE LATENCY: 4.65472 cycles
PageTableWalker TOTAL LATENCY: 303562 cycles

DRAM Statistics
Channel 0
 RQ ROW_BUFFER_HIT:     219069
  ROW_BUFFER_MISS:     544618
 AVG DBUS CONGESTED CYCLE:    3.64214
 WQ ROW_BUFFER_HIT:      19936
  ROW_BUFFER_MISS:      27212  FULL:          0

