last_page:0x200000000000000
VMEM_RES_CAP:0x100000
PAGE_SIZE:4096
LOG2_PAGE_SIZE:12
LOG2_PAGE_TABLE_SIZE:9
page_table_levels:5
WARNING: physical memory size is smaller than virtual memory size
FDiP enabled with aggresivity 16

*** ChampSim Multicore Out-of-Order Simulator ***

Warmup Instructions: 50000000
Simulation Instructions: 100000000
Number of CPUs: 1
Small page size: 4096
Large page size: 2097152

CPU 0 Bimodal branch predictor
Basic BTB sets: 1024 ways: 8 indirect buffer size: 4096 RAS size: 64
Instruction page size distrubution: 0
Loading instruction page size distribution from /home/bsc/bsc018186/scratch/itp_asplos25_AE/dump/srv486_ap.pdst
Data page size distrubution: 0
Loading data page size distribution from /home/bsc/bsc018186/scratch/itp_asplos25_AE/dump/srv486_ap.pdst
cpu0_L2C IP-based stride prefetcher
cpu0_L2C is using xPTP/LRU
	TLB_LOWER_STRESS_THRESHOLD:1
	TLB_UPPER_STRESS_THRESHOLD:9
	MIN_EVICTION_POSITION:4
cpu0_L1D next line prefetcher
cpu0_STLB using iTP with max lru@8
cpu0_STLB using iTP with instr@0 and data@2
Init sat counter with 3 bits (max:50).
cpu0_L1I next line prefetcher
Off-chip DRAM Size: 4 GiB Channels: 1 Width: 64-bit Data Rate: 3200 MT/s
Heartbeat CPU 0 instructions: 10000000 cycles: 2500272 heartbeat IPC: 3.99957 cumulative IPC: 3.99957 (Simulation time: 0 hr 0 min 38 sec) 
Heartbeat CPU 0 instructions: 20000000 cycles: 5000395 heartbeat IPC: 3.99981 cumulative IPC: 3.99969 (Simulation time: 0 hr 1 min 22 sec) 
Heartbeat CPU 0 instructions: 30000000 cycles: 7516323 heartbeat IPC: 3.97468 cumulative IPC: 3.99132 (Simulation time: 0 hr 2 min 6 sec) 
Heartbeat CPU 0 instructions: 40000002 cycles: 10016352 heartbeat IPC: 3.99996 cumulative IPC: 3.99348 (Simulation time: 0 hr 2 min 51 sec) 
Heartbeat CPU 0 instructions: 50000001 cycles: 12516429 heartbeat IPC: 3.99988 cumulative IPC: 3.99475 (Simulation time: 0 hr 3 min 35 sec) 
Warmup finished CPU 0 instructions: 50000001 cycles: 12516430 cumulative IPC: 3.99475 (Simulation time: 0 hr 3 min 35 sec) 

Warmup complete CPU 0 instructions: 50000001 cycles: 12516430 (Simulation time: 0 hr 3 min 35 sec) 

Heartbeat CPU 0 instructions: 60000000 cycles: 19622883 heartbeat IPC: 1.40718 cumulative IPC: 1.40718 (Simulation time: 0 hr 4 min 33 sec) 
Heartbeat CPU 0 instructions: 70000000 cycles: 33071546 heartbeat IPC: 0.743569 cumulative IPC: 0.972994 (Simulation time: 0 hr 5 min 36 sec) 
Heartbeat CPU 0 instructions: 80000003 cycles: 46500033 heartbeat IPC: 0.744686 cumulative IPC: 0.882779 (Simulation time: 0 hr 6 min 41 sec) 
Heartbeat CPU 0 instructions: 90000001 cycles: 60726601 heartbeat IPC: 0.702911 cumulative IPC: 0.829701 (Simulation time: 0 hr 7 min 51 sec) 
Heartbeat CPU 0 instructions: 100000004 cycles: 73880830 heartbeat IPC: 0.760213 cumulative IPC: 0.814805 (Simulation time: 0 hr 9 min 0 sec) 
*** Reached end of trace: /gpfs/projects/bsc18/MN4/bsc18/romol/ChampSim/traces/qualcomm_srv/srv486_ap.champsimtrace.xz
Heartbeat CPU 0 instructions: 110000002 cycles: 86658130 heartbeat IPC: 0.782638 cumulative IPC: 0.809262 (Simulation time: 0 hr 10 min 8 sec) 
Heartbeat CPU 0 instructions: 120000004 cycles: 99388258 heartbeat IPC: 0.785539 cumulative IPC: 0.805785 (Simulation time: 0 hr 11 min 16 sec) 
Heartbeat CPU 0 instructions: 130000001 cycles: 114587664 heartbeat IPC: 0.657921 cumulative IPC: 0.783767 (Simulation time: 0 hr 12 min 28 sec) 
Heartbeat CPU 0 instructions: 140000001 cycles: 127689252 heartbeat IPC: 0.763267 cumulative IPC: 0.781435 (Simulation time: 0 hr 13 min 34 sec) 
Heartbeat CPU 0 instructions: 150000003 cycles: 140528761 heartbeat IPC: 0.778847 cumulative IPC: 0.781175 (Simulation time: 0 hr 14 min 36 sec) 
Simulation finished CPU 0 instructions: 100000002 cycles: 128012332 cumulative IPC: 0.781175 (Simulation time: 0 hr 14 min 36 sec) 

Simulation complete CPU 0 instructions: 100000002 cycles: 128012332 (Simulation time: 0 hr 14 min 36 sec) 


ChampSim completed all CPUs

Saving instructions large page distribution to /home/bsc/bsc018186/scratch/itp_asplos25_AE/dump/srv486_ap.pdst...
Saving data large page distribution to /home/bsc/bsc018186/scratch/itp_asplos25_AE/dump/srv486_ap.pdst...
=== Simulation ===
CPU 0 runs /gpfs/projects/bsc18/MN4/bsc18/romol/ChampSim/traces/qualcomm_srv/srv486_ap.champsimtrace.xz

Region of Interest Statistics

CPU 0 cumulative IPC: 0.781175 instructions: 100000002 cycles: 128012332
CPU 0 Branch Prediction Accuracy: 85.0579% MPKI: 28.6718 Average ROB Occupancy at Mispredict: 14.2211
Branch type MPKI
BRANCH_DIRECT_JUMP: 0.93948
BRANCH_INDIRECT: 14.9905
BRANCH_CONDITIONAL: 9.28665
BRANCH_DIRECT_CALL: 1.69553
BRANCH_INDIRECT_CALL: 0.54119
BRANCH_RETURN: 1.21849

Instructions large pages: 0
Instructions small pages: 10903
Large page distribution for instructions: 0%

Data large pages: 0
Data small pages: 9814
Large page distribution for data: 0%

cpu0_L1I TOTAL       ACCESS:   34530143  HIT:   27343061  MISS:    7187082  iACCESS:   34530143  iHIT:   27343061  iMISS:    7187082  dACCESS:          0  dHIT:          0  dMISS:          0  itACCESS:          0  itHIT:          0  itMISS:          0  dtACCESS:          0  dtHIT:          0  dtMISS:          0
cpu0_L1I LOAD         ACCESS:    9334782  HIT:    7327641  MISS:    2007141  iACCESS:    9334782  iHIT:    7327641  iMISS:    2007141  dACCESS:          0  dHIT:          0  dMISS:          0  itACCESS:          0  itHIT:          0  itMISS:          0  dtACCESS:          0  dtHIT:          0  dtMISS:          0
cpu0_L1I RFO          ACCESS:          0  HIT:          0  MISS:          0  iACCESS:          0  iHIT:          0  iMISS:          0  dACCESS:          0  dHIT:          0  dMISS:          0  itACCESS:          0  itHIT:          0  itMISS:          0  dtACCESS:          0  dtHIT:          0  dtMISS:          0
cpu0_L1I PREFETCH     ACCESS:   25195361  HIT:   20015420  MISS:    5179941  iACCESS:   25195361  iHIT:   20015420  iMISS:    5179941  dACCESS:          0  dHIT:          0  dMISS:          0  itACCESS:          0  itHIT:          0  itMISS:          0  dtACCESS:          0  dtHIT:          0  dtMISS:          0
cpu0_L1I WRITE        ACCESS:          0  HIT:          0  MISS:          0  iACCESS:          0  iHIT:          0  iMISS:          0  dACCESS:          0  dHIT:          0  dMISS:          0  itACCESS:          0  itHIT:          0  itMISS:          0  dtACCESS:          0  dtHIT:          0  dtMISS:          0
cpu0_L1I TRANSLATION  ACCESS:          0  HIT:          0  MISS:          0  iACCESS:          0  iHIT:          0  iMISS:          0  dACCESS:          0  dHIT:          0  dMISS:          0  itACCESS:          0  itHIT:          0  itMISS:          0  dtACCESS:          0  dtHIT:          0  dtMISS:          0
cpu0_L1I PREFETCH  REQUESTED:   27359073  ISSUED:   27358981  CROSSED:          0  USEFUL:    1737827  USELESS:     563338
cpu0_L1I AVERAGE iMISS LATENCY: 11.5555 cycles
cpu0_L1I AVERAGE dMISS LATENCY: 0 cycles
cpu0_L1I AVERAGE itMISS LATENCY: 0 cycles
cpu0_L1I AVERAGE dtMISS LATENCY: 0 cycles
cpu0_L1I PAGE CROSSINGS (TLB HIT):         0 
cpu0_L1I PAGE CROSSINGS (TLB MISS):         0 
cpu0_L1I AVERAGE MISS LATENCY: 11.5555 cycles
cpu0_ITLB TOTAL       ACCESS:   28830294  HIT:   27113070  MISS:    1717224  iACCESS:   28830294  iHIT:   27113070  iMISS:    1717224  dACCESS:          0  dHIT:          0  dMISS:          0  itACCESS:          0  itHIT:          0  itMISS:          0  dtACCESS:          0  dtHIT:          0  dtMISS:          0
cpu0_ITLB LOAD         ACCESS:   28830294  HIT:   27113070  MISS:    1717224  iACCESS:   28830294  iHIT:   27113070  iMISS:    1717224  dACCESS:          0  dHIT:          0  dMISS:          0  itACCESS:          0  itHIT:          0  itMISS:          0  dtACCESS:          0  dtHIT:          0  dtMISS:          0
cpu0_ITLB RFO          ACCESS:          0  HIT:          0  MISS:          0  iACCESS:          0  iHIT:          0  iMISS:          0  dACCESS:          0  dHIT:          0  dMISS:          0  itACCESS:          0  itHIT:          0  itMISS:          0  dtACCESS:          0  dtHIT:          0  dtMISS:          0
cpu0_ITLB PREFETCH     ACCESS:          0  HIT:          0  MISS:          0  iACCESS:          0  iHIT:          0  iMISS:          0  dACCESS:          0  dHIT:          0  dMISS:          0  itACCESS:          0  itHIT:          0  itMISS:          0  dtACCESS:          0  dtHIT:          0  dtMISS:          0
cpu0_ITLB WRITE        ACCESS:          0  HIT:          0  MISS:          0  iACCESS:          0  iHIT:          0  iMISS:          0  dACCESS:          0  dHIT:          0  dMISS:          0  itACCESS:          0  itHIT:          0  itMISS:          0  dtACCESS:          0  dtHIT:          0  dtMISS:          0
cpu0_ITLB TRANSLATION  ACCESS:          0  HIT:          0  MISS:          0  iACCESS:          0  iHIT:          0  iMISS:          0  dACCESS:          0  dHIT:          0  dMISS:          0  itACCESS:          0  itHIT:          0  itMISS:          0  dtACCESS:          0  dtHIT:          0  dtMISS:          0
cpu0_ITLB PREFETCH  REQUESTED:          0  ISSUED:          0  CROSSED:          0  USEFUL:     283292  USELESS:      57178
cpu0_ITLB AVERAGE iMISS LATENCY: 2.15865 cycles
cpu0_ITLB AVERAGE dMISS LATENCY: 0 cycles
cpu0_ITLB AVERAGE itMISS LATENCY: 0 cycles
cpu0_ITLB AVERAGE dtMISS LATENCY: 0 cycles
cpu0_ITLB PAGE CROSSINGS (TLB HIT):         0 
cpu0_ITLB PAGE CROSSINGS (TLB MISS):         0 
cpu0_ITLB AVERAGE MISS LATENCY: 2.15865 cycles
cpu0_DTLB TOTAL       ACCESS:   29576814  HIT:   25438536  MISS:    4138278  iACCESS:          0  iHIT:          0  iMISS:          0  dACCESS:   29576814  dHIT:   25438536  dMISS:    4138278  itACCESS:          0  itHIT:          0  itMISS:          0  dtACCESS:          0  dtHIT:          0  dtMISS:          0
cpu0_DTLB LOAD         ACCESS:   29576814  HIT:   25438536  MISS:    4138278  iACCESS:          0  iHIT:          0  iMISS:          0  dACCESS:   29576814  dHIT:   25438536  dMISS:    4138278  itACCESS:          0  itHIT:          0  itMISS:          0  dtACCESS:          0  dtHIT:          0  dtMISS:          0
cpu0_DTLB RFO          ACCESS:          0  HIT:          0  MISS:          0  iACCESS:          0  iHIT:          0  iMISS:          0  dACCESS:          0  dHIT:          0  dMISS:          0  itACCESS:          0  itHIT:          0  itMISS:          0  dtACCESS:          0  dtHIT:          0  dtMISS:          0
cpu0_DTLB PREFETCH     ACCESS:          0  HIT:          0  MISS:          0  iACCESS:          0  iHIT:          0  iMISS:          0  dACCESS:          0  dHIT:          0  dMISS:          0  itACCESS:          0  itHIT:          0  itMISS:          0  dtACCESS:          0  dtHIT:          0  dtMISS:          0
cpu0_DTLB WRITE        ACCESS:          0  HIT:          0  MISS:          0  iACCESS:          0  iHIT:          0  iMISS:          0  dACCESS:          0  dHIT:          0  dMISS:          0  itACCESS:          0  itHIT:          0  itMISS:          0  dtACCESS:          0  dtHIT:          0  dtMISS:          0
cpu0_DTLB TRANSLATION  ACCESS:          0  HIT:          0  MISS:          0  iACCESS:          0  iHIT:          0  iMISS:          0  dACCESS:          0  dHIT:          0  dMISS:          0  itACCESS:          0  itHIT:          0  itMISS:          0  dtACCESS:          0  dtHIT:          0  dtMISS:          0
cpu0_DTLB PREFETCH  REQUESTED:          0  ISSUED:          0  CROSSED:          0  USEFUL:          0  USELESS:          0
cpu0_DTLB AVERAGE iMISS LATENCY: 0 cycles
cpu0_DTLB AVERAGE dMISS LATENCY: 7.27614 cycles
cpu0_DTLB AVERAGE itMISS LATENCY: 0 cycles
cpu0_DTLB AVERAGE dtMISS LATENCY: 0 cycles
cpu0_DTLB PAGE CROSSINGS (TLB HIT):         0 
cpu0_DTLB PAGE CROSSINGS (TLB MISS):         0 
cpu0_DTLB AVERAGE MISS LATENCY: 7.27614 cycles
cpu0_STLB TOTAL       ACCESS:    2535307  HIT:    2403721  MISS:     131586  iACCESS:     340473  iHIT:     331400  iMISS:       9073  dACCESS:    2194834  dHIT:    2072321  dMISS:     122513  itACCESS:          0  itHIT:          0  itMISS:          0  dtACCESS:          0  dtHIT:          0  dtMISS:          0
cpu0_STLB LOAD         ACCESS:    2535307  HIT:    2403721  MISS:     131586  iACCESS:     340473  iHIT:     331400  iMISS:       9073  dACCESS:    2194834  dHIT:    2072321  dMISS:     122513  itACCESS:          0  itHIT:          0  itMISS:          0  dtACCESS:          0  dtHIT:          0  dtMISS:          0
cpu0_STLB RFO          ACCESS:          0  HIT:          0  MISS:          0  iACCESS:          0  iHIT:          0  iMISS:          0  dACCESS:          0  dHIT:          0  dMISS:          0  itACCESS:          0  itHIT:          0  itMISS:          0  dtACCESS:          0  dtHIT:          0  dtMISS:          0
cpu0_STLB PREFETCH     ACCESS:          0  HIT:          0  MISS:          0  iACCESS:          0  iHIT:          0  iMISS:          0  dACCESS:          0  dHIT:          0  dMISS:          0  itACCESS:          0  itHIT:          0  itMISS:          0  dtACCESS:          0  dtHIT:          0  dtMISS:          0
cpu0_STLB WRITE        ACCESS:          0  HIT:          0  MISS:          0  iACCESS:          0  iHIT:          0  iMISS:          0  dACCESS:          0  dHIT:          0  dMISS:          0  itACCESS:          0  itHIT:          0  itMISS:          0  dtACCESS:          0  dtHIT:          0  dtMISS:          0
cpu0_STLB TRANSLATION  ACCESS:          0  HIT:          0  MISS:          0  iACCESS:          0  iHIT:          0  iMISS:          0  dACCESS:          0  dHIT:          0  dMISS:          0  itACCESS:          0  itHIT:          0  itMISS:          0  dtACCESS:          0  dtHIT:          0  dtMISS:          0
cpu0_STLB PREFETCH  REQUESTED:          0  ISSUED:          0  CROSSED:          0  USEFUL:          0  USELESS:          0
cpu0_STLB AVERAGE iMISS LATENCY: 8.11462 cycles
cpu0_STLB AVERAGE dMISS LATENCY: 94.1245 cycles
cpu0_STLB AVERAGE itMISS LATENCY: 0 cycles
cpu0_STLB AVERAGE dtMISS LATENCY: 0 cycles
cpu0_STLB PAGE CROSSINGS (TLB HIT):         0 
cpu0_STLB PAGE CROSSINGS (TLB MISS):         0 
cpu0_STLB AVERAGE MISS LATENCY: 102.24 cycles
cpu0_L1D TOTAL       ACCESS:   45173436  HIT:   38678501  MISS:    6494935  iACCESS:          0  iHIT:          0  iMISS:          0  dACCESS:   44980469  dHIT:   38666102  dMISS:    6314367  itACCESS:      10477  itHIT:       1130  itMISS:       9347  dtACCESS:     182490  dtHIT:      11269  dtMISS:     171221
cpu0_L1D LOAD         ACCESS:   21697344  HIT:   18156773  MISS:    3540571  iACCESS:          0  iHIT:          0  iMISS:          0  dACCESS:   21697344  dHIT:   18156773  dMISS:    3540571  itACCESS:          0  itHIT:          0  itMISS:          0  dtACCESS:          0  dtHIT:          0  dtMISS:          0
cpu0_L1D RFO          ACCESS:          0  HIT:          0  MISS:          0  iACCESS:          0  iHIT:          0  iMISS:          0  dACCESS:          0  dHIT:          0  dMISS:          0  itACCESS:          0  itHIT:          0  itMISS:          0  dtACCESS:          0  dtHIT:          0  dtMISS:          0
cpu0_L1D PREFETCH     ACCESS:   13186802  HIT:   11086213  MISS:    2100589  iACCESS:          0  iHIT:          0  iMISS:          0  dACCESS:   13186802  dHIT:   11086213  dMISS:    2100589  itACCESS:          0  itHIT:          0  itMISS:          0  dtACCESS:          0  dtHIT:          0  dtMISS:          0
cpu0_L1D WRITE        ACCESS:   10096323  HIT:    9423116  MISS:     673207  iACCESS:          0  iHIT:          0  iMISS:          0  dACCESS:   10096323  dHIT:    9423116  dMISS:     673207  itACCESS:          0  itHIT:          0  itMISS:          0  dtACCESS:          0  dtHIT:          0  dtMISS:          0
cpu0_L1D TRANSLATION  ACCESS:     192967  HIT:      12399  MISS:     180568  iACCESS:          0  iHIT:          0  iMISS:          0  dACCESS:          0  dHIT:          0  dMISS:          0  itACCESS:      10477  itHIT:       1130  itMISS:       9347  dtACCESS:     182490  dtHIT:      11269  dtMISS:     171221
cpu0_L1D PREFETCH  REQUESTED:   21697344  ISSUED:   17273281  CROSSED:          0  USEFUL:     273621  USELESS:     768681
cpu0_L1D AVERAGE iMISS LATENCY: 0 cycles
cpu0_L1D AVERAGE dMISS LATENCY: 20.3476 cycles
cpu0_L1D AVERAGE itMISS LATENCY: 0.146223 cycles
cpu0_L1D AVERAGE dtMISS LATENCY: 1.53452 cycles
cpu0_L1D PAGE CROSSINGS (TLB HIT):         0 
cpu0_L1D PAGE CROSSINGS (TLB MISS):         0 
cpu0_L1D AVERAGE MISS LATENCY: 22.0284 cycles
cpu0_L2C TOTAL       ACCESS:    7980106  HIT:    3179261  MISS:    4800845  iACCESS:    2957510  iHIT:    1323025  iMISS:    1634485  dACCESS:    4850252  dHIT:    1747424  dMISS:    3102828  itACCESS:       9347  itHIT:       3058  itMISS:       6289  dtACCESS:     162997  dtHIT:     105754  dtMISS:      57243
cpu0_L2C LOAD         ACCESS:    3023319  HIT:    1185984  MISS:    1837335  iACCESS:     690643  iHIT:     279873  iMISS:     410770  dACCESS:    2332676  dHIT:     906111  dMISS:    1426565  itACCESS:          0  itHIT:          0  itMISS:          0  dtACCESS:          0  dtHIT:          0  dtMISS:          0
cpu0_L2C RFO          ACCESS:     179727  HIT:      45002  MISS:     134725  iACCESS:          0  iHIT:          0  iMISS:          0  dACCESS:     179727  dHIT:      45002  dMISS:     134725  itACCESS:          0  itHIT:          0  itMISS:          0  dtACCESS:          0  dtHIT:          0  dtMISS:          0
cpu0_L2C PREFETCH     ACCESS:    4336517  HIT:    1700746  MISS:    2635771  iACCESS:    2266867  iHIT:    1043152  iMISS:    1223715  dACCESS:    2069650  dHIT:     657594  dMISS:    1412056  itACCESS:          0  itHIT:          0  itMISS:          0  dtACCESS:          0  dtHIT:          0  dtMISS:          0
cpu0_L2C WRITE        ACCESS:     268199  HIT:     138717  MISS:     129482  iACCESS:          0  iHIT:          0  iMISS:          0  dACCESS:     268199  dHIT:     138717  dMISS:     129482  itACCESS:          0  itHIT:          0  itMISS:          0  dtACCESS:          0  dtHIT:          0  dtMISS:          0
cpu0_L2C TRANSLATION  ACCESS:     172344  HIT:     108812  MISS:      63532  iACCESS:          0  iHIT:          0  iMISS:          0  dACCESS:          0  dHIT:          0  dMISS:          0  itACCESS:       9347  itHIT:       3058  itMISS:       6289  dtACCESS:     162997  dtHIT:     105754  dtMISS:      57243
cpu0_L2C PREFETCH  REQUESTED:    1260078  ISSUED:    1260078  CROSSED:          0  USEFUL:     321178  USELESS:     292530
cpu0_L2C AVERAGE iMISS LATENCY: 11.6086 cycles
cpu0_L2C AVERAGE dMISS LATENCY: 26.2852 cycles
cpu0_L2C AVERAGE itMISS LATENCY: 0.17893 cycles
cpu0_L2C AVERAGE dtMISS LATENCY: 1.75653 cycles
cpu0_L2C PAGE CROSSINGS (TLB HIT):         0 
cpu0_L2C PAGE CROSSINGS (TLB MISS):         0 
cpu0_L2C AVERAGE MISS LATENCY: 39.8292 cycles
LLC TOTAL       ACCESS:    4773933  HIT:    4158765  MISS:     615168  iACCESS:    1595863  iHIT:    1437583  iMISS:     158280  dACCESS:    3114538  dHIT:    2703170  dMISS:     411368  itACCESS:       6289  itHIT:       2101  itMISS:       4188  dtACCESS:      57243  dtHIT:      15911  dtMISS:      41332
LLC LOAD         ACCESS:    1835101  HIT:    1704010  MISS:     131091  iACCESS:     409717  iHIT:     377850  iMISS:      31867  dACCESS:    1425384  dHIT:    1326160  dMISS:      99224  itACCESS:          0  itHIT:          0  itMISS:          0  dtACCESS:          0  dtHIT:          0  dtMISS:          0
LLC RFO          ACCESS:     134721  HIT:      89105  MISS:      45616  iACCESS:          0  iHIT:          0  iMISS:          0  dACCESS:     134721  dHIT:      89105  dMISS:      45616  itACCESS:          0  itHIT:          0  itMISS:          0  dtACCESS:          0  dtHIT:          0  dtMISS:          0
LLC PREFETCH     ACCESS:    2550417  HIT:    2159091  MISS:     391326  iACCESS:    1186146  iHIT:    1059733  iMISS:     126413  dACCESS:    1364271  dHIT:    1099358  dMISS:     264913  itACCESS:          0  itHIT:          0  itMISS:          0  dtACCESS:          0  dtHIT:          0  dtMISS:          0
LLC WRITE        ACCESS:     190162  HIT:     188547  MISS:       1615  iACCESS:          0  iHIT:          0  iMISS:          0  dACCESS:     190162  dHIT:     188547  dMISS:       1615  itACCESS:          0  itHIT:          0  itMISS:          0  dtACCESS:          0  dtHIT:          0  dtMISS:          0
LLC TRANSLATION  ACCESS:      63532  HIT:      18012  MISS:      45520  iACCESS:          0  iHIT:          0  iMISS:          0  dACCESS:          0  dHIT:          0  dMISS:          0  itACCESS:       6289  itHIT:       2101  itMISS:       4188  dtACCESS:      57243  dtHIT:      15911  dtMISS:      41332
LLC PREFETCH  REQUESTED:          0  ISSUED:          0  CROSSED:          0  USEFUL:          0  USELESS:          0
LLC AVERAGE iMISS LATENCY: 40.5694 cycles
LLC AVERAGE dMISS LATENCY: 113.142 cycles
LLC AVERAGE itMISS LATENCY: 1.19576 cycles
LLC AVERAGE dtMISS LATENCY: 11.8778 cycles
LLC PAGE CROSSINGS (TLB HIT):         0 
LLC PAGE CROSSINGS (TLB MISS):         0 
LLC AVERAGE MISS LATENCY: 166.785 cycles

PageTableWalker TOTAL       ACCESS:      71408  
PageTableWalker AVERAGE LATENCY: 4.68084 cycles
PageTableWalker TOTAL LATENCY: 334249 cycles

DRAM Statistics
Channel 0
 RQ ROW_BUFFER_HIT:     163449
  ROW_BUFFER_MISS:     449448
 AVG DBUS CONGESTED CYCLE:     3.7143
 WQ ROW_BUFFER_HIT:      15077
  ROW_BUFFER_MISS:      38842  FULL:          0

