last_page:0x200000000000000
VMEM_RES_CAP:0x100000
PAGE_SIZE:4096
LOG2_PAGE_SIZE:12
LOG2_PAGE_TABLE_SIZE:9
page_table_levels:5
WARNING: physical memory size is smaller than virtual memory size
FDiP enabled with aggresivity 16

*** ChampSim Multicore Out-of-Order Simulator ***

Warmup Instructions: 50000000
Simulation Instructions: 100000000
Number of CPUs: 1
Small page size: 4096
Large page size: 2097152

CPU 0 Bimodal branch predictor
Basic BTB sets: 1024 ways: 8 indirect buffer size: 4096 RAS size: 64
Instruction page size distrubution: 0
Loading instruction page size distribution from /home/bsc/bsc018186/scratch/itp_asplos25_AE/dump/srv425_ap.pdst
Data page size distrubution: 0
Loading data page size distribution from /home/bsc/bsc018186/scratch/itp_asplos25_AE/dump/srv425_ap.pdst
cpu0_L2C IP-based stride prefetcher
cpu0_L1D next line prefetcher
CHiRPing...
cpu0_L1I next line prefetcher
Off-chip DRAM Size: 4 GiB Channels: 1 Width: 64-bit Data Rate: 3200 MT/s
Heartbeat CPU 0 instructions: 10000003 cycles: 2500375 heartbeat IPC: 3.99941 cumulative IPC: 3.99941 (Simulation time: 0 hr 0 min 39 sec) 
Heartbeat CPU 0 instructions: 20000003 cycles: 5000375 heartbeat IPC: 4 cumulative IPC: 3.99971 (Simulation time: 0 hr 1 min 20 sec) 
Heartbeat CPU 0 instructions: 30000003 cycles: 7500375 heartbeat IPC: 4 cumulative IPC: 3.99981 (Simulation time: 0 hr 2 min 1 sec) 
Heartbeat CPU 0 instructions: 40000000 cycles: 10000416 heartbeat IPC: 3.99994 cumulative IPC: 3.99984 (Simulation time: 0 hr 2 min 43 sec) 
Heartbeat CPU 0 instructions: 50000000 cycles: 12500418 heartbeat IPC: 4 cumulative IPC: 3.99987 (Simulation time: 0 hr 3 min 24 sec) 
Warmup finished CPU 0 instructions: 50000000 cycles: 12500419 cumulative IPC: 3.99987 (Simulation time: 0 hr 3 min 24 sec) 

Warmup complete CPU 0 instructions: 50000000 cycles: 12500419 (Simulation time: 0 hr 3 min 24 sec) 

Heartbeat CPU 0 instructions: 60000002 cycles: 27712724 heartbeat IPC: 0.657363 cumulative IPC: 0.657363 (Simulation time: 0 hr 4 min 29 sec) 
Heartbeat CPU 0 instructions: 70000000 cycles: 43145242 heartbeat IPC: 0.647983 cumulative IPC: 0.652639 (Simulation time: 0 hr 5 min 35 sec) 
Heartbeat CPU 0 instructions: 80000003 cycles: 57745376 heartbeat IPC: 0.684926 cumulative IPC: 0.663058 (Simulation time: 0 hr 6 min 41 sec) 
Heartbeat CPU 0 instructions: 90000001 cycles: 73229513 heartbeat IPC: 0.645823 cumulative IPC: 0.658663 (Simulation time: 0 hr 7 min 46 sec) 
Heartbeat CPU 0 instructions: 100000002 cycles: 87922754 heartbeat IPC: 0.680586 cumulative IPC: 0.662934 (Simulation time: 0 hr 8 min 51 sec) 
*** Reached end of trace: /gpfs/projects/bsc18/MN4/bsc18/romol/ChampSim/traces/qualcomm_srv/srv425_ap.champsimtrace.xz
Heartbeat CPU 0 instructions: 110000003 cycles: 104034831 heartbeat IPC: 0.620653 cumulative IPC: 0.655492 (Simulation time: 0 hr 9 min 58 sec) 
Heartbeat CPU 0 instructions: 120000000 cycles: 118124779 heartbeat IPC: 0.709726 cumulative IPC: 0.662726 (Simulation time: 0 hr 11 min 2 sec) 
Heartbeat CPU 0 instructions: 130000002 cycles: 132918941 heartbeat IPC: 0.675943 cumulative IPC: 0.66435 (Simulation time: 0 hr 12 min 8 sec) 
Heartbeat CPU 0 instructions: 140000000 cycles: 148474906 heartbeat IPC: 0.642841 cumulative IPC: 0.661889 (Simulation time: 0 hr 13 min 14 sec) 
Heartbeat CPU 0 instructions: 150000003 cycles: 162351549 heartbeat IPC: 0.720636 cumulative IPC: 0.667329 (Simulation time: 0 hr 14 min 18 sec) 
Simulation finished CPU 0 instructions: 100000003 cycles: 149851131 cumulative IPC: 0.667329 (Simulation time: 0 hr 14 min 18 sec) 

Simulation complete CPU 0 instructions: 100000003 cycles: 149851131 (Simulation time: 0 hr 14 min 18 sec) 


ChampSim completed all CPUs

Saving instructions large page distribution to /home/bsc/bsc018186/scratch/itp_asplos25_AE/dump/srv425_ap.pdst...
Saving data large page distribution to /home/bsc/bsc018186/scratch/itp_asplos25_AE/dump/srv425_ap.pdst...
=== Simulation ===
CPU 0 runs /gpfs/projects/bsc18/MN4/bsc18/romol/ChampSim/traces/qualcomm_srv/srv425_ap.champsimtrace.xz

Region of Interest Statistics

CPU 0 cumulative IPC: 0.667329 instructions: 100000003 cycles: 149851131
CPU 0 Branch Prediction Accuracy: 83.6679% MPKI: 29.2186 Average ROB Occupancy at Mispredict: 12.9498
Branch type MPKI
BRANCH_DIRECT_JUMP: 0.98956
BRANCH_INDIRECT: 15.0836
BRANCH_CONDITIONAL: 9.55682
BRANCH_DIRECT_CALL: 1.78352
BRANCH_INDIRECT_CALL: 0.50776
BRANCH_RETURN: 1.29738

Instructions large pages: 0
Instructions small pages: 1003
Large page distribution for instructions: 0%

Data large pages: 0
Data small pages: 10167
Large page distribution for data: 0%

cpu0_L1I TOTAL       ACCESS:   34720483  HIT:   26931681  MISS:    7788802  iACCESS:   34720483  iHIT:   26931681  iMISS:    7788802  dACCESS:          0  dHIT:          0  dMISS:          0  itACCESS:          0  itHIT:          0  itMISS:          0  dtACCESS:          0  dtHIT:          0  dtMISS:          0
cpu0_L1I LOAD         ACCESS:   10213572  HIT:    8013480  MISS:    2200092  iACCESS:   10213572  iHIT:    8013480  iMISS:    2200092  dACCESS:          0  dHIT:          0  dMISS:          0  itACCESS:          0  itHIT:          0  itMISS:          0  dtACCESS:          0  dtHIT:          0  dtMISS:          0
cpu0_L1I RFO          ACCESS:          0  HIT:          0  MISS:          0  iACCESS:          0  iHIT:          0  iMISS:          0  dACCESS:          0  dHIT:          0  dMISS:          0  itACCESS:          0  itHIT:          0  itMISS:          0  dtACCESS:          0  dtHIT:          0  dtMISS:          0
cpu0_L1I PREFETCH     ACCESS:   24506911  HIT:   18918201  MISS:    5588710  iACCESS:   24506911  iHIT:   18918201  iMISS:    5588710  dACCESS:          0  dHIT:          0  dMISS:          0  itACCESS:          0  itHIT:          0  itMISS:          0  dtACCESS:          0  dtHIT:          0  dtMISS:          0
cpu0_L1I WRITE        ACCESS:          0  HIT:          0  MISS:          0  iACCESS:          0  iHIT:          0  iMISS:          0  dACCESS:          0  dHIT:          0  dMISS:          0  itACCESS:          0  itHIT:          0  itMISS:          0  dtACCESS:          0  dtHIT:          0  dtMISS:          0
cpu0_L1I TRANSLATION  ACCESS:          0  HIT:          0  MISS:          0  iACCESS:          0  iHIT:          0  iMISS:          0  dACCESS:          0  dHIT:          0  dMISS:          0  itACCESS:          0  itHIT:          0  itMISS:          0  dtACCESS:          0  dtHIT:          0  dtMISS:          0
cpu0_L1I PREFETCH  REQUESTED:   27103919  ISSUED:   27103919  CROSSED:          0  USEFUL:    1886773  USELESS:     629167
cpu0_L1I AVERAGE iMISS LATENCY: 12.397 cycles
cpu0_L1I AVERAGE dMISS LATENCY: 0 cycles
cpu0_L1I AVERAGE itMISS LATENCY: 0 cycles
cpu0_L1I AVERAGE dtMISS LATENCY: 0 cycles
cpu0_L1I PAGE CROSSINGS (TLB HIT):         0 
cpu0_L1I PAGE CROSSINGS (TLB MISS):         0 
cpu0_L1I AVERAGE MISS LATENCY: 12.397 cycles
cpu0_ITLB TOTAL       ACCESS:   28979459  HIT:   26985633  MISS:    1993826  iACCESS:   28979459  iHIT:   26985633  iMISS:    1993826  dACCESS:          0  dHIT:          0  dMISS:          0  itACCESS:          0  itHIT:          0  itMISS:          0  dtACCESS:          0  dtHIT:          0  dtMISS:          0
cpu0_ITLB LOAD         ACCESS:   28979459  HIT:   26985633  MISS:    1993826  iACCESS:   28979459  iHIT:   26985633  iMISS:    1993826  dACCESS:          0  dHIT:          0  dMISS:          0  itACCESS:          0  itHIT:          0  itMISS:          0  dtACCESS:          0  dtHIT:          0  dtMISS:          0
cpu0_ITLB RFO          ACCESS:          0  HIT:          0  MISS:          0  iACCESS:          0  iHIT:          0  iMISS:          0  dACCESS:          0  dHIT:          0  dMISS:          0  itACCESS:          0  itHIT:          0  itMISS:          0  dtACCESS:          0  dtHIT:          0  dtMISS:          0
cpu0_ITLB PREFETCH     ACCESS:          0  HIT:          0  MISS:          0  iACCESS:          0  iHIT:          0  iMISS:          0  dACCESS:          0  dHIT:          0  dMISS:          0  itACCESS:          0  itHIT:          0  itMISS:          0  dtACCESS:          0  dtHIT:          0  dtMISS:          0
cpu0_ITLB WRITE        ACCESS:          0  HIT:          0  MISS:          0  iACCESS:          0  iHIT:          0  iMISS:          0  dACCESS:          0  dHIT:          0  dMISS:          0  itACCESS:          0  itHIT:          0  itMISS:          0  dtACCESS:          0  dtHIT:          0  dtMISS:          0
cpu0_ITLB TRANSLATION  ACCESS:          0  HIT:          0  MISS:          0  iACCESS:          0  iHIT:          0  iMISS:          0  dACCESS:          0  dHIT:          0  dMISS:          0  itACCESS:          0  itHIT:          0  itMISS:          0  dtACCESS:          0  dtHIT:          0  dtMISS:          0
cpu0_ITLB PREFETCH  REQUESTED:          0  ISSUED:          0  CROSSED:          0  USEFUL:     320341  USELESS:      68144
cpu0_ITLB AVERAGE iMISS LATENCY: 5.05644 cycles
cpu0_ITLB AVERAGE dMISS LATENCY: 0 cycles
cpu0_ITLB AVERAGE itMISS LATENCY: 0 cycles
cpu0_ITLB AVERAGE dtMISS LATENCY: 0 cycles
cpu0_ITLB PAGE CROSSINGS (TLB HIT):         0 
cpu0_ITLB PAGE CROSSINGS (TLB MISS):         0 
cpu0_ITLB AVERAGE MISS LATENCY: 5.05644 cycles
cpu0_DTLB TOTAL       ACCESS:   27654813  HIT:   25623245  MISS:    2031568  iACCESS:          0  iHIT:          0  iMISS:          0  dACCESS:   27654813  dHIT:   25623245  dMISS:    2031568  itACCESS:          0  itHIT:          0  itMISS:          0  dtACCESS:          0  dtHIT:          0  dtMISS:          0
cpu0_DTLB LOAD         ACCESS:   27654813  HIT:   25623245  MISS:    2031568  iACCESS:          0  iHIT:          0  iMISS:          0  dACCESS:   27654813  dHIT:   25623245  dMISS:    2031568  itACCESS:          0  itHIT:          0  itMISS:          0  dtACCESS:          0  dtHIT:          0  dtMISS:          0
cpu0_DTLB RFO          ACCESS:          0  HIT:          0  MISS:          0  iACCESS:          0  iHIT:          0  iMISS:          0  dACCESS:          0  dHIT:          0  dMISS:          0  itACCESS:          0  itHIT:          0  itMISS:          0  dtACCESS:          0  dtHIT:          0  dtMISS:          0
cpu0_DTLB PREFETCH     ACCESS:          0  HIT:          0  MISS:          0  iACCESS:          0  iHIT:          0  iMISS:          0  dACCESS:          0  dHIT:          0  dMISS:          0  itACCESS:          0  itHIT:          0  itMISS:          0  dtACCESS:          0  dtHIT:          0  dtMISS:          0
cpu0_DTLB WRITE        ACCESS:          0  HIT:          0  MISS:          0  iACCESS:          0  iHIT:          0  iMISS:          0  dACCESS:          0  dHIT:          0  dMISS:          0  itACCESS:          0  itHIT:          0  itMISS:          0  dtACCESS:          0  dtHIT:          0  dtMISS:          0
cpu0_DTLB TRANSLATION  ACCESS:          0  HIT:          0  MISS:          0  iACCESS:          0  iHIT:          0  iMISS:          0  dACCESS:          0  dHIT:          0  dMISS:          0  itACCESS:          0  itHIT:          0  itMISS:          0  dtACCESS:          0  dtHIT:          0  dtMISS:          0
cpu0_DTLB PREFETCH  REQUESTED:          0  ISSUED:          0  CROSSED:          0  USEFUL:          0  USELESS:          0
cpu0_DTLB AVERAGE iMISS LATENCY: 0 cycles
cpu0_DTLB AVERAGE dMISS LATENCY: 14.9792 cycles
cpu0_DTLB AVERAGE itMISS LATENCY: 0 cycles
cpu0_DTLB AVERAGE dtMISS LATENCY: 0 cycles
cpu0_DTLB PAGE CROSSINGS (TLB HIT):         0 
cpu0_DTLB PAGE CROSSINGS (TLB MISS):         0 
cpu0_DTLB AVERAGE MISS LATENCY: 14.9792 cycles
cpu0_STLB TOTAL       ACCESS:    1625015  HIT:    1454951  MISS:     170064  iACCESS:     388488  iHIT:     327431  iMISS:      61057  dACCESS:    1236527  dHIT:    1127520  dMISS:     109007  itACCESS:          0  itHIT:          0  itMISS:          0  dtACCESS:          0  dtHIT:          0  dtMISS:          0
cpu0_STLB LOAD         ACCESS:    1625015  HIT:    1454951  MISS:     170064  iACCESS:     388488  iHIT:     327431  iMISS:      61057  dACCESS:    1236527  dHIT:    1127520  dMISS:     109007  itACCESS:          0  itHIT:          0  itMISS:          0  dtACCESS:          0  dtHIT:          0  dtMISS:          0
cpu0_STLB RFO          ACCESS:          0  HIT:          0  MISS:          0  iACCESS:          0  iHIT:          0  iMISS:          0  dACCESS:          0  dHIT:          0  dMISS:          0  itACCESS:          0  itHIT:          0  itMISS:          0  dtACCESS:          0  dtHIT:          0  dtMISS:          0
cpu0_STLB PREFETCH     ACCESS:          0  HIT:          0  MISS:          0  iACCESS:          0  iHIT:          0  iMISS:          0  dACCESS:          0  dHIT:          0  dMISS:          0  itACCESS:          0  itHIT:          0  itMISS:          0  dtACCESS:          0  dtHIT:          0  dtMISS:          0
cpu0_STLB WRITE        ACCESS:          0  HIT:          0  MISS:          0  iACCESS:          0  iHIT:          0  iMISS:          0  dACCESS:          0  dHIT:          0  dMISS:          0  itACCESS:          0  itHIT:          0  itMISS:          0  dtACCESS:          0  dtHIT:          0  dtMISS:          0
cpu0_STLB TRANSLATION  ACCESS:          0  HIT:          0  MISS:          0  iACCESS:          0  iHIT:          0  iMISS:          0  dACCESS:          0  dHIT:          0  dMISS:          0  itACCESS:          0  itHIT:          0  itMISS:          0  dtACCESS:          0  dtHIT:          0  dtMISS:          0
cpu0_STLB PREFETCH  REQUESTED:          0  ISSUED:          0  CROSSED:          0  USEFUL:          0  USELESS:          0
cpu0_STLB AVERAGE iMISS LATENCY: 41.2025 cycles
cpu0_STLB AVERAGE dMISS LATENCY: 120.965 cycles
cpu0_STLB AVERAGE itMISS LATENCY: 0 cycles
cpu0_STLB AVERAGE dtMISS LATENCY: 0 cycles
cpu0_STLB PAGE CROSSINGS (TLB HIT):         0 
cpu0_STLB PAGE CROSSINGS (TLB MISS):         0 
cpu0_STLB AVERAGE MISS LATENCY: 162.168 cycles
cpu0_L1D TOTAL       ACCESS:   41311635  HIT:   37904600  MISS:    3407035  iACCESS:          0  iHIT:          0  iMISS:          0  dACCESS:   41082475  dHIT:   37883724  dMISS:    3198751  itACCESS:      66515  itHIT:       9377  itMISS:      57138  dtACCESS:     162645  dtHIT:      11499  dtMISS:     151146
cpu0_L1D LOAD         ACCESS:   18830540  HIT:   17367438  MISS:    1463102  iACCESS:          0  iHIT:          0  iMISS:          0  dACCESS:   18830540  dHIT:   17367438  dMISS:    1463102  itACCESS:          0  itHIT:          0  itMISS:          0  dtACCESS:          0  dtHIT:          0  dtMISS:          0
cpu0_L1D RFO          ACCESS:          0  HIT:          0  MISS:          0  iACCESS:          0  iHIT:          0  iMISS:          0  dACCESS:          0  dHIT:          0  dMISS:          0  itACCESS:          0  itHIT:          0  itMISS:          0  dtACCESS:          0  dtHIT:          0  dtMISS:          0
cpu0_L1D PREFETCH     ACCESS:   12049050  HIT:   10744963  MISS:    1304087  iACCESS:          0  iHIT:          0  iMISS:          0  dACCESS:   12049050  dHIT:   10744963  dMISS:    1304087  itACCESS:          0  itHIT:          0  itMISS:          0  dtACCESS:          0  dtHIT:          0  dtMISS:          0
cpu0_L1D WRITE        ACCESS:   10202885  HIT:    9771323  MISS:     431562  iACCESS:          0  iHIT:          0  iMISS:          0  dACCESS:   10202885  dHIT:    9771323  dMISS:     431562  itACCESS:          0  itHIT:          0  itMISS:          0  dtACCESS:          0  dtHIT:          0  dtMISS:          0
cpu0_L1D TRANSLATION  ACCESS:     229160  HIT:      20876  MISS:     208284  iACCESS:          0  iHIT:          0  iMISS:          0  dACCESS:          0  dHIT:          0  dMISS:          0  itACCESS:      66515  itHIT:       9377  itMISS:      57138  dtACCESS:     162645  dtHIT:      11499  dtMISS:     151146
cpu0_L1D PREFETCH  REQUESTED:   18830540  ISSUED:   16859537  CROSSED:          0  USEFUL:     305100  USELESS:     697670
cpu0_L1D AVERAGE iMISS LATENCY: 0 cycles
cpu0_L1D AVERAGE dMISS LATENCY: 33.0064 cycles
cpu0_L1D AVERAGE itMISS LATENCY: 1.90188 cycles
cpu0_L1D AVERAGE dtMISS LATENCY: 5.2886 cycles
cpu0_L1D PAGE CROSSINGS (TLB HIT):         0 
cpu0_L1D PAGE CROSSINGS (TLB MISS):         0 
cpu0_L1D AVERAGE MISS LATENCY: 40.1968 cycles
cpu0_L2C TOTAL       ACCESS:    6909559  HIT:    4091231  MISS:    2818328  iACCESS:    3283289  iHIT:    2240563  iMISS:    1042726  dACCESS:    3424262  dHIT:    1820728  dMISS:    1603534  itACCESS:      57138  itHIT:      10103  itMISS:      47035  dtACCESS:     144870  dtHIT:      19837  dtMISS:     125033
cpu0_L2C LOAD         ACCESS:    1727887  HIT:    1062443  MISS:     665444  iACCESS:     802699  iHIT:     575564  iMISS:     227135  dACCESS:     925188  dHIT:     486879  dMISS:     438309  itACCESS:          0  itHIT:          0  itMISS:          0  dtACCESS:          0  dtHIT:          0  dtMISS:          0
cpu0_L2C RFO          ACCESS:     157221  HIT:      74138  MISS:      83083  iACCESS:          0  iHIT:          0  iMISS:          0  dACCESS:     157221  dHIT:      74138  dMISS:      83083  itACCESS:          0  itHIT:          0  itMISS:          0  dtACCESS:          0  dtHIT:          0  dtMISS:          0
cpu0_L2C PREFETCH     ACCESS:    4539049  HIT:    2641961  MISS:    1897088  iACCESS:    2480590  iHIT:    1664999  iMISS:     815591  dACCESS:    2058459  dHIT:     976962  dMISS:    1081497  itACCESS:          0  itHIT:          0  itMISS:          0  dtACCESS:          0  dtHIT:          0  dtMISS:          0
cpu0_L2C WRITE        ACCESS:     283394  HIT:     282749  MISS:        645  iACCESS:          0  iHIT:          0  iMISS:          0  dACCESS:     283394  dHIT:     282749  dMISS:        645  itACCESS:          0  itHIT:          0  itMISS:          0  dtACCESS:          0  dtHIT:          0  dtMISS:          0
cpu0_L2C TRANSLATION  ACCESS:     202008  HIT:      29940  MISS:     172068  iACCESS:          0  iHIT:          0  iMISS:          0  dACCESS:          0  dHIT:          0  dMISS:          0  itACCESS:      57138  itHIT:      10103  itMISS:      47035  dtACCESS:     144870  dtHIT:      19837  dtMISS:     125033
cpu0_L2C PREFETCH  REQUESTED:    1298622  ISSUED:    1298622  CROSSED:          0  USEFUL:     303673  USELESS:     211079
cpu0_L2C AVERAGE iMISS LATENCY: 23.8497 cycles
cpu0_L2C AVERAGE dMISS LATENCY: 45.6509 cycles
cpu0_L2C AVERAGE itMISS LATENCY: 2.09942 cycles
cpu0_L2C AVERAGE dtMISS LATENCY: 5.88223 cycles
cpu0_L2C PAGE CROSSINGS (TLB HIT):         0 
cpu0_L2C PAGE CROSSINGS (TLB MISS):         0 
cpu0_L2C AVERAGE MISS LATENCY: 77.4822 cycles
LLC TOTAL       ACCESS:    2851533  HIT:    1807539  MISS:    1043994  iACCESS:     996059  iHIT:     673100  iMISS:     322959  dACCESS:    1683406  dHIT:    1070636  dMISS:     612770  itACCESS:      47035  itHIT:      17759  itMISS:      29276  dtACCESS:     125033  dtHIT:      46044  dtMISS:      78989
LLC LOAD         ACCESS:     664188  HIT:     431548  MISS:     232640  iACCESS:     226044  iHIT:     153363  iMISS:      72681  dACCESS:     438144  dHIT:     278185  dMISS:     159959  itACCESS:          0  itHIT:          0  itMISS:          0  dtACCESS:          0  dtHIT:          0  dtMISS:          0
LLC RFO          ACCESS:      83077  HIT:      44524  MISS:      38553  iACCESS:          0  iHIT:          0  iMISS:          0  dACCESS:      83077  dHIT:      44524  dMISS:      38553  itACCESS:          0  itHIT:          0  itMISS:          0  dtACCESS:          0  dtHIT:          0  dtMISS:          0
LLC PREFETCH     ACCESS:    1800818  HIT:    1142402  MISS:     658416  iACCESS:     770015  iHIT:     519737  iMISS:     250278  dACCESS:    1030803  dHIT:     622665  dMISS:     408138  itACCESS:          0  itHIT:          0  itMISS:          0  dtACCESS:          0  dtHIT:          0  dtMISS:          0
LLC WRITE        ACCESS:     131382  HIT:     125262  MISS:       6120  iACCESS:          0  iHIT:          0  iMISS:          0  dACCESS:     131382  dHIT:     125262  dMISS:       6120  itACCESS:          0  itHIT:          0  itMISS:          0  dtACCESS:          0  dtHIT:          0  dtMISS:          0
LLC TRANSLATION  ACCESS:     172068  HIT:      63803  MISS:     108265  iACCESS:          0  iHIT:          0  iMISS:          0  dACCESS:          0  dHIT:          0  dMISS:          0  itACCESS:      47035  itHIT:      17759  itMISS:      29276  dtACCESS:     125033  dtHIT:      46044  dtMISS:      78989
LLC PREFETCH  REQUESTED:          0  ISSUED:          0  CROSSED:          0  USEFUL:          0  USELESS:          0
LLC AVERAGE iMISS LATENCY: 45.848 cycles
LLC AVERAGE dMISS LATENCY: 94.4744 cycles
LLC AVERAGE itMISS LATENCY: 4.78522 cycles
LLC AVERAGE dtMISS LATENCY: 13.5355 cycles
LLC PAGE CROSSINGS (TLB HIT):         0 
LLC PAGE CROSSINGS (TLB MISS):         0 
LLC AVERAGE MISS LATENCY: 158.643 cycles

PageTableWalker TOTAL       ACCESS:      85027  
PageTableWalker AVERAGE LATENCY: 5.30338 cycles
PageTableWalker TOTAL LATENCY: 450930 cycles

DRAM Statistics
Channel 0
 RQ ROW_BUFFER_HIT:     266805
  ROW_BUFFER_MISS:     770991
 AVG DBUS CONGESTED CYCLE:    3.61343
 WQ ROW_BUFFER_HIT:      20972
  ROW_BUFFER_MISS:      20625  FULL:          0

