last_page:0x200000000000000
VMEM_RES_CAP:0x100000
PAGE_SIZE:4096
LOG2_PAGE_SIZE:12
LOG2_PAGE_TABLE_SIZE:9
page_table_levels:5
WARNING: physical memory size is smaller than virtual memory size
FDiP enabled with aggresivity 16

*** ChampSim Multicore Out-of-Order Simulator ***

Warmup Instructions: 50000000
Simulation Instructions: 100000000
Number of CPUs: 1
Small page size: 4096
Large page size: 2097152

CPU 0 Bimodal branch predictor
Basic BTB sets: 1024 ways: 8 indirect buffer size: 4096 RAS size: 64
Instruction page size distrubution: 0
Loading instruction page size distribution from /home/bsc/bsc018186/scratch/itp_asplos25_AE/dump/srv551_ap.pdst
Data page size distrubution: 0
Loading data page size distribution from /home/bsc/bsc018186/scratch/itp_asplos25_AE/dump/srv551_ap.pdst
cpu0_L2C IP-based stride prefetcher
cpu0_L2C is using PTP replacement policy:
	TLB_STRESS_THRESHOLD:0
	PTE_EVICTION_RATIO:0
cpu0_L1D next line prefetcher
cpu0_L1I next line prefetcher
Off-chip DRAM Size: 4 GiB Channels: 1 Width: 64-bit Data Rate: 3200 MT/s
Heartbeat CPU 0 instructions: 10000001 cycles: 2500306 heartbeat IPC: 3.99952 cumulative IPC: 3.99952 (Simulation time: 0 hr 0 min 37 sec) 
Heartbeat CPU 0 instructions: 20000002 cycles: 5000338 heartbeat IPC: 3.99995 cumulative IPC: 3.99974 (Simulation time: 0 hr 1 min 16 sec) 
Heartbeat CPU 0 instructions: 30000001 cycles: 7500416 heartbeat IPC: 3.99988 cumulative IPC: 3.99978 (Simulation time: 0 hr 1 min 56 sec) 
Heartbeat CPU 0 instructions: 40000001 cycles: 10000467 heartbeat IPC: 3.99992 cumulative IPC: 3.99982 (Simulation time: 0 hr 2 min 36 sec) 
Heartbeat CPU 0 instructions: 50000000 cycles: 12500520 heartbeat IPC: 3.99992 cumulative IPC: 3.99984 (Simulation time: 0 hr 3 min 17 sec) 
Warmup finished CPU 0 instructions: 50000000 cycles: 12500521 cumulative IPC: 3.99984 (Simulation time: 0 hr 3 min 17 sec) 

Warmup complete CPU 0 instructions: 50000000 cycles: 12500521 (Simulation time: 0 hr 3 min 17 sec) 

Heartbeat CPU 0 instructions: 60000000 cycles: 28671730 heartbeat IPC: 0.618383 cumulative IPC: 0.618383 (Simulation time: 0 hr 4 min 24 sec) 
Heartbeat CPU 0 instructions: 70000000 cycles: 36291531 heartbeat IPC: 1.31238 cumulative IPC: 0.840654 (Simulation time: 0 hr 5 min 23 sec) 
Heartbeat CPU 0 instructions: 80000004 cycles: 55205265 heartbeat IPC: 0.528717 cumulative IPC: 0.702499 (Simulation time: 0 hr 6 min 33 sec) 
Heartbeat CPU 0 instructions: 90000003 cycles: 73332927 heartbeat IPC: 0.551644 cumulative IPC: 0.657545 (Simulation time: 0 hr 7 min 42 sec) 
Heartbeat CPU 0 instructions: 100000002 cycles: 91903252 heartbeat IPC: 0.538494 cumulative IPC: 0.629702 (Simulation time: 0 hr 8 min 51 sec) 
*** Reached end of trace: /gpfs/projects/bsc18/MN4/bsc18/romol/ChampSim/traces/qualcomm_srv/srv551_ap.champsimtrace.xz
Heartbeat CPU 0 instructions: 110000004 cycles: 109111316 heartbeat IPC: 0.581124 cumulative IPC: 0.621049 (Simulation time: 0 hr 9 min 59 sec) 
Heartbeat CPU 0 instructions: 120000003 cycles: 126546504 heartbeat IPC: 0.573553 cumulative IPC: 0.613788 (Simulation time: 0 hr 11 min 7 sec) 
Heartbeat CPU 0 instructions: 130000003 cycles: 145321297 heartbeat IPC: 0.53263 cumulative IPC: 0.602316 (Simulation time: 0 hr 12 min 18 sec) 
Heartbeat CPU 0 instructions: 140000001 cycles: 164369753 heartbeat IPC: 0.524977 cumulative IPC: 0.592616 (Simulation time: 0 hr 13 min 28 sec) 
Heartbeat CPU 0 instructions: 150000003 cycles: 182878944 heartbeat IPC: 0.540273 cumulative IPC: 0.586929 (Simulation time: 0 hr 14 min 38 sec) 
Simulation finished CPU 0 instructions: 100000003 cycles: 170378424 cumulative IPC: 0.586929 (Simulation time: 0 hr 14 min 38 sec) 

Simulation complete CPU 0 instructions: 100000003 cycles: 170378424 (Simulation time: 0 hr 14 min 38 sec) 


ChampSim completed all CPUs

Saving instructions large page distribution to /home/bsc/bsc018186/scratch/itp_asplos25_AE/dump/srv551_ap.pdst...
Saving data large page distribution to /home/bsc/bsc018186/scratch/itp_asplos25_AE/dump/srv551_ap.pdst...
=== Simulation ===
CPU 0 runs /gpfs/projects/bsc18/MN4/bsc18/romol/ChampSim/traces/qualcomm_srv/srv551_ap.champsimtrace.xz

Region of Interest Statistics

CPU 0 cumulative IPC: 0.586929 instructions: 100000003 cycles: 170378424
CPU 0 Branch Prediction Accuracy: 83.1561% MPKI: 32.5194 Average ROB Occupancy at Mispredict: 12.1945
Branch type MPKI
BRANCH_DIRECT_JUMP: 1.15096
BRANCH_INDIRECT: 16.5939
BRANCH_CONDITIONAL: 10.3702
BRANCH_DIRECT_CALL: 2.16571
BRANCH_INDIRECT_CALL: 0.69363
BRANCH_RETURN: 1.545

Instructions large pages: 0
Instructions small pages: 6351
Large page distribution for instructions: 0%

Data large pages: 0
Data small pages: 5175
Large page distribution for data: 0%

cpu0_L1I TOTAL       ACCESS:   34888450  HIT:   27406642  MISS:    7481808  iACCESS:   34888450  iHIT:   27406642  iMISS:    7481808  dACCESS:          0  dHIT:          0  dMISS:          0  itACCESS:          0  itHIT:          0  itMISS:          0  dtACCESS:          0  dtHIT:          0  dtMISS:          0
cpu0_L1I LOAD         ACCESS:    9250595  HIT:    7196662  MISS:    2053933  iACCESS:    9250595  iHIT:    7196662  iMISS:    2053933  dACCESS:          0  dHIT:          0  dMISS:          0  itACCESS:          0  itHIT:          0  itMISS:          0  dtACCESS:          0  dtHIT:          0  dtMISS:          0
cpu0_L1I RFO          ACCESS:          0  HIT:          0  MISS:          0  iACCESS:          0  iHIT:          0  iMISS:          0  dACCESS:          0  dHIT:          0  dMISS:          0  itACCESS:          0  itHIT:          0  itMISS:          0  dtACCESS:          0  dtHIT:          0  dtMISS:          0
cpu0_L1I PREFETCH     ACCESS:   25637855  HIT:   20209980  MISS:    5427875  iACCESS:   25637855  iHIT:   20209980  iMISS:    5427875  dACCESS:          0  dHIT:          0  dMISS:          0  itACCESS:          0  itHIT:          0  itMISS:          0  dtACCESS:          0  dtHIT:          0  dtMISS:          0
cpu0_L1I WRITE        ACCESS:          0  HIT:          0  MISS:          0  iACCESS:          0  iHIT:          0  iMISS:          0  dACCESS:          0  dHIT:          0  dMISS:          0  itACCESS:          0  itHIT:          0  itMISS:          0  dtACCESS:          0  dtHIT:          0  dtMISS:          0
cpu0_L1I TRANSLATION  ACCESS:          0  HIT:          0  MISS:          0  iACCESS:          0  iHIT:          0  iMISS:          0  dACCESS:          0  dHIT:          0  dMISS:          0  itACCESS:          0  itHIT:          0  itMISS:          0  dtACCESS:          0  dtHIT:          0  dtMISS:          0
cpu0_L1I PREFETCH  REQUESTED:   27543168  ISSUED:   27540384  CROSSED:          0  USEFUL:    1747065  USELESS:     582134
cpu0_L1I AVERAGE iMISS LATENCY: 19.0878 cycles
cpu0_L1I AVERAGE dMISS LATENCY: 0 cycles
cpu0_L1I AVERAGE itMISS LATENCY: 0 cycles
cpu0_L1I AVERAGE dtMISS LATENCY: 0 cycles
cpu0_L1I PAGE CROSSINGS (TLB HIT):         0 
cpu0_L1I PAGE CROSSINGS (TLB MISS):         0 
cpu0_L1I AVERAGE MISS LATENCY: 19.0878 cycles
cpu0_ITLB TOTAL       ACCESS:   29206373  HIT:   27485644  MISS:    1720729  iACCESS:   29206373  iHIT:   27485644  iMISS:    1720729  dACCESS:          0  dHIT:          0  dMISS:          0  itACCESS:          0  itHIT:          0  itMISS:          0  dtACCESS:          0  dtHIT:          0  dtMISS:          0
cpu0_ITLB LOAD         ACCESS:   29206373  HIT:   27485644  MISS:    1720729  iACCESS:   29206373  iHIT:   27485644  iMISS:    1720729  dACCESS:          0  dHIT:          0  dMISS:          0  itACCESS:          0  itHIT:          0  itMISS:          0  dtACCESS:          0  dtHIT:          0  dtMISS:          0
cpu0_ITLB RFO          ACCESS:          0  HIT:          0  MISS:          0  iACCESS:          0  iHIT:          0  iMISS:          0  dACCESS:          0  dHIT:          0  dMISS:          0  itACCESS:          0  itHIT:          0  itMISS:          0  dtACCESS:          0  dtHIT:          0  dtMISS:          0
cpu0_ITLB PREFETCH     ACCESS:          0  HIT:          0  MISS:          0  iACCESS:          0  iHIT:          0  iMISS:          0  dACCESS:          0  dHIT:          0  dMISS:          0  itACCESS:          0  itHIT:          0  itMISS:          0  dtACCESS:          0  dtHIT:          0  dtMISS:          0
cpu0_ITLB WRITE        ACCESS:          0  HIT:          0  MISS:          0  iACCESS:          0  iHIT:          0  iMISS:          0  dACCESS:          0  dHIT:          0  dMISS:          0  itACCESS:          0  itHIT:          0  itMISS:          0  dtACCESS:          0  dtHIT:          0  dtMISS:          0
cpu0_ITLB TRANSLATION  ACCESS:          0  HIT:          0  MISS:          0  iACCESS:          0  iHIT:          0  iMISS:          0  dACCESS:          0  dHIT:          0  dMISS:          0  itACCESS:          0  itHIT:          0  itMISS:          0  dtACCESS:          0  dtHIT:          0  dtMISS:          0
cpu0_ITLB PREFETCH  REQUESTED:          0  ISSUED:          0  CROSSED:          0  USEFUL:     293143  USELESS:      54461
cpu0_ITLB AVERAGE iMISS LATENCY: 3.8363 cycles
cpu0_ITLB AVERAGE dMISS LATENCY: 0 cycles
cpu0_ITLB AVERAGE itMISS LATENCY: 0 cycles
cpu0_ITLB AVERAGE dtMISS LATENCY: 0 cycles
cpu0_ITLB PAGE CROSSINGS (TLB HIT):         0 
cpu0_ITLB PAGE CROSSINGS (TLB MISS):         0 
cpu0_ITLB AVERAGE MISS LATENCY: 3.8363 cycles
cpu0_DTLB TOTAL       ACCESS:   29812975  HIT:   25541143  MISS:    4271832  iACCESS:          0  iHIT:          0  iMISS:          0  dACCESS:   29812975  dHIT:   25541143  dMISS:    4271832  itACCESS:          0  itHIT:          0  itMISS:          0  dtACCESS:          0  dtHIT:          0  dtMISS:          0
cpu0_DTLB LOAD         ACCESS:   29812975  HIT:   25541143  MISS:    4271832  iACCESS:          0  iHIT:          0  iMISS:          0  dACCESS:   29812975  dHIT:   25541143  dMISS:    4271832  itACCESS:          0  itHIT:          0  itMISS:          0  dtACCESS:          0  dtHIT:          0  dtMISS:          0
cpu0_DTLB RFO          ACCESS:          0  HIT:          0  MISS:          0  iACCESS:          0  iHIT:          0  iMISS:          0  dACCESS:          0  dHIT:          0  dMISS:          0  itACCESS:          0  itHIT:          0  itMISS:          0  dtACCESS:          0  dtHIT:          0  dtMISS:          0
cpu0_DTLB PREFETCH     ACCESS:          0  HIT:          0  MISS:          0  iACCESS:          0  iHIT:          0  iMISS:          0  dACCESS:          0  dHIT:          0  dMISS:          0  itACCESS:          0  itHIT:          0  itMISS:          0  dtACCESS:          0  dtHIT:          0  dtMISS:          0
cpu0_DTLB WRITE        ACCESS:          0  HIT:          0  MISS:          0  iACCESS:          0  iHIT:          0  iMISS:          0  dACCESS:          0  dHIT:          0  dMISS:          0  itACCESS:          0  itHIT:          0  itMISS:          0  dtACCESS:          0  dtHIT:          0  dtMISS:          0
cpu0_DTLB TRANSLATION  ACCESS:          0  HIT:          0  MISS:          0  iACCESS:          0  iHIT:          0  iMISS:          0  dACCESS:          0  dHIT:          0  dMISS:          0  itACCESS:          0  itHIT:          0  itMISS:          0  dtACCESS:          0  dtHIT:          0  dtMISS:          0
cpu0_DTLB PREFETCH  REQUESTED:          0  ISSUED:          0  CROSSED:          0  USEFUL:          0  USELESS:          0
cpu0_DTLB AVERAGE iMISS LATENCY: 0 cycles
cpu0_DTLB AVERAGE dMISS LATENCY: 6.50357 cycles
cpu0_DTLB AVERAGE itMISS LATENCY: 0 cycles
cpu0_DTLB AVERAGE dtMISS LATENCY: 0 cycles
cpu0_DTLB PAGE CROSSINGS (TLB HIT):         0 
cpu0_DTLB PAGE CROSSINGS (TLB MISS):         0 
cpu0_DTLB AVERAGE MISS LATENCY: 6.50357 cycles
cpu0_STLB TOTAL       ACCESS:    2660199  HIT:    2453318  MISS:     206881  iACCESS:     347617  iHIT:     269777  iMISS:      77840  dACCESS:    2312582  dHIT:    2183541  dMISS:     129041  itACCESS:          0  itHIT:          0  itMISS:          0  dtACCESS:          0  dtHIT:          0  dtMISS:          0
cpu0_STLB LOAD         ACCESS:    2660199  HIT:    2453318  MISS:     206881  iACCESS:     347617  iHIT:     269777  iMISS:      77840  dACCESS:    2312582  dHIT:    2183541  dMISS:     129041  itACCESS:          0  itHIT:          0  itMISS:          0  dtACCESS:          0  dtHIT:          0  dtMISS:          0
cpu0_STLB RFO          ACCESS:          0  HIT:          0  MISS:          0  iACCESS:          0  iHIT:          0  iMISS:          0  dACCESS:          0  dHIT:          0  dMISS:          0  itACCESS:          0  itHIT:          0  itMISS:          0  dtACCESS:          0  dtHIT:          0  dtMISS:          0
cpu0_STLB PREFETCH     ACCESS:          0  HIT:          0  MISS:          0  iACCESS:          0  iHIT:          0  iMISS:          0  dACCESS:          0  dHIT:          0  dMISS:          0  itACCESS:          0  itHIT:          0  itMISS:          0  dtACCESS:          0  dtHIT:          0  dtMISS:          0
cpu0_STLB WRITE        ACCESS:          0  HIT:          0  MISS:          0  iACCESS:          0  iHIT:          0  iMISS:          0  dACCESS:          0  dHIT:          0  dMISS:          0  itACCESS:          0  itHIT:          0  itMISS:          0  dtACCESS:          0  dtHIT:          0  dtMISS:          0
cpu0_STLB TRANSLATION  ACCESS:          0  HIT:          0  MISS:          0  iACCESS:          0  iHIT:          0  iMISS:          0  dACCESS:          0  dHIT:          0  dMISS:          0  itACCESS:          0  itHIT:          0  itMISS:          0  dtACCESS:          0  dtHIT:          0  dtMISS:          0
cpu0_STLB PREFETCH  REQUESTED:          0  ISSUED:          0  CROSSED:          0  USEFUL:          0  USELESS:          0
cpu0_STLB AVERAGE iMISS LATENCY: 18.507 cycles
cpu0_STLB AVERAGE dMISS LATENCY: 43.8903 cycles
cpu0_STLB AVERAGE itMISS LATENCY: 0 cycles
cpu0_STLB AVERAGE dtMISS LATENCY: 0 cycles
cpu0_STLB PAGE CROSSINGS (TLB HIT):         0 
cpu0_STLB PAGE CROSSINGS (TLB MISS):         0 
cpu0_STLB AVERAGE MISS LATENCY: 62.3973 cycles
cpu0_L1D TOTAL       ACCESS:   46867050  HIT:   39037212  MISS:    7829838  iACCESS:          0  iHIT:          0  iMISS:          0  dACCESS:   46608146  dHIT:   39012730  dMISS:    7595416  itACCESS:      83543  itHIT:      13343  itMISS:      70200  dtACCESS:     175361  dtHIT:      11139  dtMISS:     164222
cpu0_L1D LOAD         ACCESS:   22589948  HIT:   18194023  MISS:    4395925  iACCESS:          0  iHIT:          0  iMISS:          0  dACCESS:   22589948  dHIT:   18194023  dMISS:    4395925  itACCESS:          0  itHIT:          0  itMISS:          0  dtACCESS:          0  dtHIT:          0  dtMISS:          0
cpu0_L1D RFO          ACCESS:          0  HIT:          0  MISS:          0  iACCESS:          0  iHIT:          0  iMISS:          0  dACCESS:          0  dHIT:          0  dMISS:          0  itACCESS:          0  itHIT:          0  itMISS:          0  dtACCESS:          0  dtHIT:          0  dtMISS:          0
cpu0_L1D PREFETCH     ACCESS:   14214251  HIT:   11485575  MISS:    2728676  iACCESS:          0  iHIT:          0  iMISS:          0  dACCESS:   14214251  dHIT:   11485575  dMISS:    2728676  itACCESS:          0  itHIT:          0  itMISS:          0  dtACCESS:          0  dtHIT:          0  dtMISS:          0
cpu0_L1D WRITE        ACCESS:    9803947  HIT:    9333132  MISS:     470815  iACCESS:          0  iHIT:          0  iMISS:          0  dACCESS:    9803947  dHIT:    9333132  dMISS:     470815  itACCESS:          0  itHIT:          0  itMISS:          0  dtACCESS:          0  dtHIT:          0  dtMISS:          0
cpu0_L1D TRANSLATION  ACCESS:     258904  HIT:      24482  MISS:     234422  iACCESS:          0  iHIT:          0  iMISS:          0  dACCESS:          0  dHIT:          0  dMISS:          0  itACCESS:      83543  itHIT:      13343  itMISS:      70200  dtACCESS:     175361  dtHIT:      11139  dtMISS:     164222
cpu0_L1D PREFETCH  REQUESTED:   22589948  ISSUED:   17801294  CROSSED:          0  USEFUL:     278766  USELESS:     763712
cpu0_L1D AVERAGE iMISS LATENCY: 0 cycles
cpu0_L1D AVERAGE dMISS LATENCY: 25.0498 cycles
cpu0_L1D AVERAGE itMISS LATENCY: 0.401467 cycles
cpu0_L1D AVERAGE dtMISS LATENCY: 0.934837 cycles
cpu0_L1D PAGE CROSSINGS (TLB HIT):         0 
cpu0_L1D PAGE CROSSINGS (TLB MISS):         0 
cpu0_L1D AVERAGE MISS LATENCY: 26.3861 cycles
cpu0_L2C TOTAL       ACCESS:    8253718  HIT:    1700589  MISS:    6553129  iACCESS:    2973378  iHIT:     599553  iMISS:    2373825  dACCESS:    5049428  dHIT:     931171  dMISS:    4118257  itACCESS:      70200  itHIT:      50939  itMISS:      19261  dtACCESS:     160712  dtHIT:     118926  dtMISS:      41786
cpu0_L2C LOAD         ACCESS:    3161916  HIT:     606141  MISS:    2555775  iACCESS:     676862  iHIT:      83752  iMISS:     593110  dACCESS:    2485054  dHIT:     522389  dMISS:    1962665  itACCESS:          0  itHIT:          0  itMISS:          0  dtACCESS:          0  dtHIT:          0  dtMISS:          0
cpu0_L2C RFO          ACCESS:     167942  HIT:      26273  MISS:     141669  iACCESS:          0  iHIT:          0  iMISS:          0  dACCESS:     167942  dHIT:      26273  dMISS:     141669  itACCESS:          0  itHIT:          0  itMISS:          0  dtACCESS:          0  dtHIT:          0  dtMISS:          0
cpu0_L2C PREFETCH     ACCESS:    4447998  HIT:     845334  MISS:    3602664  iACCESS:    2296516  iHIT:     515801  iMISS:    1780715  dACCESS:    2151482  dHIT:     329533  dMISS:    1821949  itACCESS:          0  itHIT:          0  itMISS:          0  dtACCESS:          0  dtHIT:          0  dtMISS:          0
cpu0_L2C WRITE        ACCESS:     244950  HIT:      52976  MISS:     191974  iACCESS:          0  iHIT:          0  iMISS:          0  dACCESS:     244950  dHIT:      52976  dMISS:     191974  itACCESS:          0  itHIT:          0  itMISS:          0  dtACCESS:          0  dtHIT:          0  dtMISS:          0
cpu0_L2C TRANSLATION  ACCESS:     230912  HIT:     169865  MISS:      61047  iACCESS:          0  iHIT:          0  iMISS:          0  dACCESS:          0  dHIT:          0  dMISS:          0  itACCESS:      70200  itHIT:      50939  itMISS:      19261  dtACCESS:     160712  dtHIT:     118926  dtMISS:      41786
cpu0_L2C PREFETCH  REQUESTED:    1333409  ISSUED:    1333335  CROSSED:          0  USEFUL:     371581  USELESS:     394040
cpu0_L2C AVERAGE iMISS LATENCY: 17.7322 cycles
cpu0_L2C AVERAGE dMISS LATENCY: 33.2145 cycles
cpu0_L2C AVERAGE itMISS LATENCY: 0.380034 cycles
cpu0_L2C AVERAGE dtMISS LATENCY: 0.888953 cycles
cpu0_L2C PAGE CROSSINGS (TLB HIT):         0 
cpu0_L2C PAGE CROSSINGS (TLB MISS):         0 
cpu0_L2C AVERAGE MISS LATENCY: 52.2157 cycles
LLC TOTAL       ACCESS:    6413363  HIT:    5018453  MISS:    1394910  iACCESS:    2305026  iHIT:    1817325  iMISS:     487701  dACCESS:    4047290  dHIT:    3179325  dMISS:     867965  itACCESS:      19261  itHIT:       7131  itMISS:      12130  dtACCESS:      41786  dtHIT:      14672  dtMISS:      27114
LLC LOAD         ACCESS:    2549902  HIT:    2229590  MISS:     320312  iACCESS:     591761  iHIT:     490208  iMISS:     101553  dACCESS:    1958141  dHIT:    1739382  dMISS:     218759  itACCESS:          0  itHIT:          0  itMISS:          0  dtACCESS:          0  dtHIT:          0  dtMISS:          0
LLC RFO          ACCESS:     141669  HIT:      84193  MISS:      57476  iACCESS:          0  iHIT:          0  iMISS:          0  dACCESS:     141669  dHIT:      84193  dMISS:      57476  itACCESS:          0  itHIT:          0  itMISS:          0  dtACCESS:          0  dtHIT:          0  dtMISS:          0
LLC PREFETCH     ACCESS:    3438680  HIT:    2460819  MISS:     977861  iACCESS:    1713265  iHIT:    1327117  iMISS:     386148  dACCESS:    1725415  dHIT:    1133702  dMISS:     591713  itACCESS:          0  itHIT:          0  itMISS:          0  dtACCESS:          0  dtHIT:          0  dtMISS:          0
LLC WRITE        ACCESS:     222065  HIT:     222048  MISS:         17  iACCESS:          0  iHIT:          0  iMISS:          0  dACCESS:     222065  dHIT:     222048  dMISS:         17  itACCESS:          0  itHIT:          0  itMISS:          0  dtACCESS:          0  dtHIT:          0  dtMISS:          0
LLC TRANSLATION  ACCESS:      61047  HIT:      21803  MISS:      39244  iACCESS:          0  iHIT:          0  iMISS:          0  dACCESS:          0  dHIT:          0  dMISS:          0  itACCESS:      19261  itHIT:       7131  itMISS:      12130  dtACCESS:      41786  dtHIT:      14672  dtMISS:      27114
LLC PREFETCH  REQUESTED:          0  ISSUED:          0  CROSSED:          0  USEFUL:          0  USELESS:          0
LLC AVERAGE iMISS LATENCY: 51.3097 cycles
LLC AVERAGE dMISS LATENCY: 103.799 cycles
LLC AVERAGE itMISS LATENCY: 1.51495 cycles
LLC AVERAGE dtMISS LATENCY: 3.589 cycles
LLC PAGE CROSSINGS (TLB HIT):         0 
LLC PAGE CROSSINGS (TLB MISS):         0 
LLC AVERAGE MISS LATENCY: 160.212 cycles

PageTableWalker TOTAL       ACCESS:     118155  
PageTableWalker AVERAGE LATENCY: 3.81658 cycles
PageTableWalker TOTAL LATENCY: 450948 cycles

DRAM Statistics
Channel 0
 RQ ROW_BUFFER_HIT:     413141
  ROW_BUFFER_MISS:     970823
 AVG DBUS CONGESTED CYCLE:    3.64481
 WQ ROW_BUFFER_HIT:      35323
  ROW_BUFFER_MISS:      34821  FULL:          0

