last_page:0x200000000000000
VMEM_RES_CAP:0x100000
PAGE_SIZE:4096
LOG2_PAGE_SIZE:12
LOG2_PAGE_TABLE_SIZE:9
page_table_levels:5
WARNING: physical memory size is smaller than virtual memory size
FDiP enabled with aggresivity 16

*** ChampSim Multicore Out-of-Order Simulator ***

Warmup Instructions: 50000000
Simulation Instructions: 100000000
Number of CPUs: 1
Small page size: 4096
Large page size: 2097152

CPU 0 Bimodal branch predictor
Basic BTB sets: 1024 ways: 8 indirect buffer size: 4096 RAS size: 64
Instruction page size distrubution: 0
Loading instruction page size distribution from /home/bsc/bsc018186/scratch/itp_asplos25_AE/dump/srv540_ap.pdst
Data page size distrubution: 0
Loading data page size distribution from /home/bsc/bsc018186/scratch/itp_asplos25_AE/dump/srv540_ap.pdst
cpu0_L2C IP-based stride prefetcher
cpu0_L1D next line prefetcher
cpu0_STLB using iTP with max lru@8
cpu0_STLB using iTP with instr@0 and data@2
Init sat counter with 3 bits (max:50).
cpu0_L1I next line prefetcher
Off-chip DRAM Size: 4 GiB Channels: 1 Width: 64-bit Data Rate: 3200 MT/s
Heartbeat CPU 0 instructions: 10000001 cycles: 2500122 heartbeat IPC: 3.99981 cumulative IPC: 3.99981 (Simulation time: 0 hr 0 min 37 sec) 
Heartbeat CPU 0 instructions: 20000001 cycles: 5000207 heartbeat IPC: 3.99987 cumulative IPC: 3.99984 (Simulation time: 0 hr 1 min 16 sec) 
Heartbeat CPU 0 instructions: 30000003 cycles: 7500263 heartbeat IPC: 3.99992 cumulative IPC: 3.99987 (Simulation time: 0 hr 1 min 56 sec) 
Heartbeat CPU 0 instructions: 40000002 cycles: 10000291 heartbeat IPC: 3.99996 cumulative IPC: 3.99989 (Simulation time: 0 hr 2 min 36 sec) 
Heartbeat CPU 0 instructions: 50000000 cycles: 12500309 heartbeat IPC: 3.99998 cumulative IPC: 3.99991 (Simulation time: 0 hr 3 min 17 sec) 
Warmup finished CPU 0 instructions: 50000000 cycles: 12500310 cumulative IPC: 3.99991 (Simulation time: 0 hr 3 min 17 sec) 

Warmup complete CPU 0 instructions: 50000000 cycles: 12500310 (Simulation time: 0 hr 3 min 17 sec) 

Heartbeat CPU 0 instructions: 60000001 cycles: 32269571 heartbeat IPC: 0.505836 cumulative IPC: 0.505836 (Simulation time: 0 hr 4 min 29 sec) 
Heartbeat CPU 0 instructions: 70000002 cycles: 53752881 heartbeat IPC: 0.465478 cumulative IPC: 0.484819 (Simulation time: 0 hr 5 min 44 sec) 
Heartbeat CPU 0 instructions: 80000000 cycles: 73905044 heartbeat IPC: 0.496225 cumulative IPC: 0.488562 (Simulation time: 0 hr 6 min 57 sec) 
Heartbeat CPU 0 instructions: 90000001 cycles: 96022893 heartbeat IPC: 0.452124 cumulative IPC: 0.478913 (Simulation time: 0 hr 8 min 13 sec) 
Heartbeat CPU 0 instructions: 100000000 cycles: 117263395 heartbeat IPC: 0.470799 cumulative IPC: 0.477268 (Simulation time: 0 hr 9 min 27 sec) 
*** Reached end of trace: /gpfs/projects/bsc18/MN4/bsc18/romol/ChampSim/traces/qualcomm_srv/srv540_ap.champsimtrace.xz
Heartbeat CPU 0 instructions: 110000002 cycles: 139375643 heartbeat IPC: 0.452239 cumulative IPC: 0.472906 (Simulation time: 0 hr 10 min 43 sec) 
Heartbeat CPU 0 instructions: 120000002 cycles: 160901219 heartbeat IPC: 0.464564 cumulative IPC: 0.471696 (Simulation time: 0 hr 11 min 58 sec) 
Heartbeat CPU 0 instructions: 130000001 cycles: 181764185 heartbeat IPC: 0.479319 cumulative IPC: 0.472635 (Simulation time: 0 hr 13 min 10 sec) 
Heartbeat CPU 0 instructions: 140000001 cycles: 202367284 heartbeat IPC: 0.485364 cumulative IPC: 0.474017 (Simulation time: 0 hr 14 min 23 sec) 
Heartbeat CPU 0 instructions: 150000001 cycles: 224940422 heartbeat IPC: 0.443005 cumulative IPC: 0.470721 (Simulation time: 0 hr 15 min 37 sec) 
Simulation finished CPU 0 instructions: 100000001 cycles: 212440113 cumulative IPC: 0.470721 (Simulation time: 0 hr 15 min 37 sec) 

Simulation complete CPU 0 instructions: 100000001 cycles: 212440113 (Simulation time: 0 hr 15 min 37 sec) 


ChampSim completed all CPUs

Saving instructions large page distribution to /home/bsc/bsc018186/scratch/itp_asplos25_AE/dump/srv540_ap.pdst...
Saving data large page distribution to /home/bsc/bsc018186/scratch/itp_asplos25_AE/dump/srv540_ap.pdst...
=== Simulation ===
CPU 0 runs /gpfs/projects/bsc18/MN4/bsc18/romol/ChampSim/traces/qualcomm_srv/srv540_ap.champsimtrace.xz

Region of Interest Statistics

CPU 0 cumulative IPC: 0.470721 instructions: 100000001 cycles: 212440113
CPU 0 Branch Prediction Accuracy: 79.5913% MPKI: 36.6946 Average ROB Occupancy at Mispredict: 10.7772
Branch type MPKI
BRANCH_DIRECT_JUMP: 1.38632
BRANCH_INDIRECT: 18.7731
BRANCH_CONDITIONAL: 11.5695
BRANCH_DIRECT_CALL: 2.50793
BRANCH_INDIRECT_CALL: 0.65848
BRANCH_RETURN: 1.7994

Instructions large pages: 0
Instructions small pages: 1131
Large page distribution for instructions: 0%

Data large pages: 0
Data small pages: 4967
Large page distribution for data: 0%

cpu0_L1I TOTAL       ACCESS:   35780581  HIT:   27865754  MISS:    7914827  iACCESS:   35780581  iHIT:   27865754  iMISS:    7914827  dACCESS:          0  dHIT:          0  dMISS:          0  itACCESS:          0  itHIT:          0  itMISS:          0  dtACCESS:          0  dtHIT:          0  dtMISS:          0
cpu0_L1I LOAD         ACCESS:   10401709  HIT:    8231344  MISS:    2170365  iACCESS:   10401709  iHIT:    8231344  iMISS:    2170365  dACCESS:          0  dHIT:          0  dMISS:          0  itACCESS:          0  itHIT:          0  itMISS:          0  dtACCESS:          0  dtHIT:          0  dtMISS:          0
cpu0_L1I RFO          ACCESS:          0  HIT:          0  MISS:          0  iACCESS:          0  iHIT:          0  iMISS:          0  dACCESS:          0  dHIT:          0  dMISS:          0  itACCESS:          0  itHIT:          0  itMISS:          0  dtACCESS:          0  dtHIT:          0  dtMISS:          0
cpu0_L1I PREFETCH     ACCESS:   25378872  HIT:   19634410  MISS:    5744462  iACCESS:   25378872  iHIT:   19634410  iMISS:    5744462  dACCESS:          0  dHIT:          0  dMISS:          0  itACCESS:          0  itHIT:          0  itMISS:          0  dtACCESS:          0  dtHIT:          0  dtMISS:          0
cpu0_L1I WRITE        ACCESS:          0  HIT:          0  MISS:          0  iACCESS:          0  iHIT:          0  iMISS:          0  dACCESS:          0  dHIT:          0  dMISS:          0  itACCESS:          0  itHIT:          0  itMISS:          0  dtACCESS:          0  dtHIT:          0  dtMISS:          0
cpu0_L1I TRANSLATION  ACCESS:          0  HIT:          0  MISS:          0  iACCESS:          0  iHIT:          0  iMISS:          0  dACCESS:          0  dHIT:          0  dMISS:          0  itACCESS:          0  itHIT:          0  itMISS:          0  dtACCESS:          0  dtHIT:          0  dtMISS:          0
cpu0_L1I PREFETCH  REQUESTED:   27886180  ISSUED:   27886180  CROSSED:          0  USEFUL:    2005004  USELESS:     655628
cpu0_L1I AVERAGE iMISS LATENCY: 20.1 cycles
cpu0_L1I AVERAGE dMISS LATENCY: 0 cycles
cpu0_L1I AVERAGE itMISS LATENCY: 0 cycles
cpu0_L1I AVERAGE dtMISS LATENCY: 0 cycles
cpu0_L1I PAGE CROSSINGS (TLB HIT):         0 
cpu0_L1I PAGE CROSSINGS (TLB MISS):         0 
cpu0_L1I AVERAGE MISS LATENCY: 20.1 cycles
cpu0_ITLB TOTAL       ACCESS:   30105908  HIT:   28176631  MISS:    1929277  iACCESS:   30105908  iHIT:   28176631  iMISS:    1929277  dACCESS:          0  dHIT:          0  dMISS:          0  itACCESS:          0  itHIT:          0  itMISS:          0  dtACCESS:          0  dtHIT:          0  dtMISS:          0
cpu0_ITLB LOAD         ACCESS:   30105908  HIT:   28176631  MISS:    1929277  iACCESS:   30105908  iHIT:   28176631  iMISS:    1929277  dACCESS:          0  dHIT:          0  dMISS:          0  itACCESS:          0  itHIT:          0  itMISS:          0  dtACCESS:          0  dtHIT:          0  dtMISS:          0
cpu0_ITLB RFO          ACCESS:          0  HIT:          0  MISS:          0  iACCESS:          0  iHIT:          0  iMISS:          0  dACCESS:          0  dHIT:          0  dMISS:          0  itACCESS:          0  itHIT:          0  itMISS:          0  dtACCESS:          0  dtHIT:          0  dtMISS:          0
cpu0_ITLB PREFETCH     ACCESS:          0  HIT:          0  MISS:          0  iACCESS:          0  iHIT:          0  iMISS:          0  dACCESS:          0  dHIT:          0  dMISS:          0  itACCESS:          0  itHIT:          0  itMISS:          0  dtACCESS:          0  dtHIT:          0  dtMISS:          0
cpu0_ITLB WRITE        ACCESS:          0  HIT:          0  MISS:          0  iACCESS:          0  iHIT:          0  iMISS:          0  dACCESS:          0  dHIT:          0  dMISS:          0  itACCESS:          0  itHIT:          0  itMISS:          0  dtACCESS:          0  dtHIT:          0  dtMISS:          0
cpu0_ITLB TRANSLATION  ACCESS:          0  HIT:          0  MISS:          0  iACCESS:          0  iHIT:          0  iMISS:          0  dACCESS:          0  dHIT:          0  dMISS:          0  itACCESS:          0  itHIT:          0  itMISS:          0  dtACCESS:          0  dtHIT:          0  dtMISS:          0
cpu0_ITLB PREFETCH  REQUESTED:          0  ISSUED:          0  CROSSED:          0  USEFUL:     329161  USELESS:      64490
cpu0_ITLB AVERAGE iMISS LATENCY: 4.19392 cycles
cpu0_ITLB AVERAGE dMISS LATENCY: 0 cycles
cpu0_ITLB AVERAGE itMISS LATENCY: 0 cycles
cpu0_ITLB AVERAGE dtMISS LATENCY: 0 cycles
cpu0_ITLB PAGE CROSSINGS (TLB HIT):         0 
cpu0_ITLB PAGE CROSSINGS (TLB MISS):         0 
cpu0_ITLB AVERAGE MISS LATENCY: 4.19392 cycles
cpu0_DTLB TOTAL       ACCESS:   28082456  HIT:   26029696  MISS:    2052760  iACCESS:          0  iHIT:          0  iMISS:          0  dACCESS:   28082456  dHIT:   26029696  dMISS:    2052760  itACCESS:          0  itHIT:          0  itMISS:          0  dtACCESS:          0  dtHIT:          0  dtMISS:          0
cpu0_DTLB LOAD         ACCESS:   28082456  HIT:   26029696  MISS:    2052760  iACCESS:          0  iHIT:          0  iMISS:          0  dACCESS:   28082456  dHIT:   26029696  dMISS:    2052760  itACCESS:          0  itHIT:          0  itMISS:          0  dtACCESS:          0  dtHIT:          0  dtMISS:          0
cpu0_DTLB RFO          ACCESS:          0  HIT:          0  MISS:          0  iACCESS:          0  iHIT:          0  iMISS:          0  dACCESS:          0  dHIT:          0  dMISS:          0  itACCESS:          0  itHIT:          0  itMISS:          0  dtACCESS:          0  dtHIT:          0  dtMISS:          0
cpu0_DTLB PREFETCH     ACCESS:          0  HIT:          0  MISS:          0  iACCESS:          0  iHIT:          0  iMISS:          0  dACCESS:          0  dHIT:          0  dMISS:          0  itACCESS:          0  itHIT:          0  itMISS:          0  dtACCESS:          0  dtHIT:          0  dtMISS:          0
cpu0_DTLB WRITE        ACCESS:          0  HIT:          0  MISS:          0  iACCESS:          0  iHIT:          0  iMISS:          0  dACCESS:          0  dHIT:          0  dMISS:          0  itACCESS:          0  itHIT:          0  itMISS:          0  dtACCESS:          0  dtHIT:          0  dtMISS:          0
cpu0_DTLB TRANSLATION  ACCESS:          0  HIT:          0  MISS:          0  iACCESS:          0  iHIT:          0  iMISS:          0  dACCESS:          0  dHIT:          0  dMISS:          0  itACCESS:          0  itHIT:          0  itMISS:          0  dtACCESS:          0  dtHIT:          0  dtMISS:          0
cpu0_DTLB PREFETCH  REQUESTED:          0  ISSUED:          0  CROSSED:          0  USEFUL:          0  USELESS:          0
cpu0_DTLB AVERAGE iMISS LATENCY: 0 cycles
cpu0_DTLB AVERAGE dMISS LATENCY: 23.8593 cycles
cpu0_DTLB AVERAGE itMISS LATENCY: 0 cycles
cpu0_DTLB AVERAGE dtMISS LATENCY: 0 cycles
cpu0_DTLB PAGE CROSSINGS (TLB HIT):         0 
cpu0_DTLB PAGE CROSSINGS (TLB MISS):         0 
cpu0_DTLB AVERAGE MISS LATENCY: 23.8593 cycles
cpu0_STLB TOTAL       ACCESS:    1625566  HIT:    1398467  MISS:     227099  iACCESS:     393656  iHIT:     363878  iMISS:      29778  dACCESS:    1231910  dHIT:    1034589  dMISS:     197321  itACCESS:          0  itHIT:          0  itMISS:          0  dtACCESS:          0  dtHIT:          0  dtMISS:          0
cpu0_STLB LOAD         ACCESS:    1625566  HIT:    1398467  MISS:     227099  iACCESS:     393656  iHIT:     363878  iMISS:      29778  dACCESS:    1231910  dHIT:    1034589  dMISS:     197321  itACCESS:          0  itHIT:          0  itMISS:          0  dtACCESS:          0  dtHIT:          0  dtMISS:          0
cpu0_STLB RFO          ACCESS:          0  HIT:          0  MISS:          0  iACCESS:          0  iHIT:          0  iMISS:          0  dACCESS:          0  dHIT:          0  dMISS:          0  itACCESS:          0  itHIT:          0  itMISS:          0  dtACCESS:          0  dtHIT:          0  dtMISS:          0
cpu0_STLB PREFETCH     ACCESS:          0  HIT:          0  MISS:          0  iACCESS:          0  iHIT:          0  iMISS:          0  dACCESS:          0  dHIT:          0  dMISS:          0  itACCESS:          0  itHIT:          0  itMISS:          0  dtACCESS:          0  dtHIT:          0  dtMISS:          0
cpu0_STLB WRITE        ACCESS:          0  HIT:          0  MISS:          0  iACCESS:          0  iHIT:          0  iMISS:          0  dACCESS:          0  dHIT:          0  dMISS:          0  itACCESS:          0  itHIT:          0  itMISS:          0  dtACCESS:          0  dtHIT:          0  dtMISS:          0
cpu0_STLB TRANSLATION  ACCESS:          0  HIT:          0  MISS:          0  iACCESS:          0  iHIT:          0  iMISS:          0  dACCESS:          0  dHIT:          0  dMISS:          0  itACCESS:          0  itHIT:          0  itMISS:          0  dtACCESS:          0  dtHIT:          0  dtMISS:          0
cpu0_STLB PREFETCH  REQUESTED:          0  ISSUED:          0  CROSSED:          0  USEFUL:          0  USELESS:          0
cpu0_STLB AVERAGE iMISS LATENCY: 22.0933 cycles
cpu0_STLB AVERAGE dMISS LATENCY: 172.047 cycles
cpu0_STLB AVERAGE itMISS LATENCY: 0 cycles
cpu0_STLB AVERAGE dtMISS LATENCY: 0 cycles
cpu0_STLB PAGE CROSSINGS (TLB HIT):         0 
cpu0_STLB PAGE CROSSINGS (TLB MISS):         0 
cpu0_STLB AVERAGE MISS LATENCY: 194.14 cycles
cpu0_L1D TOTAL       ACCESS:   43194935  HIT:   38681946  MISS:    4512989  iACCESS:          0  iHIT:          0  iMISS:          0  dACCESS:   42890145  dHIT:   38663233  dMISS:    4226912  itACCESS:      33416  itHIT:       2993  itMISS:      30423  dtACCESS:     271374  dtHIT:      15720  dtMISS:     255654
cpu0_L1D LOAD         ACCESS:   19666985  HIT:   17709690  MISS:    1957295  iACCESS:          0  iHIT:          0  iMISS:          0  dACCESS:   19666985  dHIT:   17709690  dMISS:    1957295  itACCESS:          0  itHIT:          0  itMISS:          0  dtACCESS:          0  dtHIT:          0  dtMISS:          0
cpu0_L1D RFO          ACCESS:          0  HIT:          0  MISS:          0  iACCESS:          0  iHIT:          0  iMISS:          0  dACCESS:          0  dHIT:          0  dMISS:          0  itACCESS:          0  itHIT:          0  itMISS:          0  dtACCESS:          0  dtHIT:          0  dtMISS:          0
cpu0_L1D PREFETCH     ACCESS:   13118163  HIT:   11309222  MISS:    1808941  iACCESS:          0  iHIT:          0  iMISS:          0  dACCESS:   13118163  dHIT:   11309222  dMISS:    1808941  itACCESS:          0  itHIT:          0  itMISS:          0  dtACCESS:          0  dtHIT:          0  dtMISS:          0
cpu0_L1D WRITE        ACCESS:   10104997  HIT:    9644321  MISS:     460676  iACCESS:          0  iHIT:          0  iMISS:          0  dACCESS:   10104997  dHIT:    9644321  dMISS:     460676  itACCESS:          0  itHIT:          0  itMISS:          0  dtACCESS:          0  dtHIT:          0  dtMISS:          0
cpu0_L1D TRANSLATION  ACCESS:     304790  HIT:      18713  MISS:     286077  iACCESS:          0  iHIT:          0  iMISS:          0  dACCESS:          0  dHIT:          0  dMISS:          0  itACCESS:      33416  itHIT:       2993  itMISS:      30423  dtACCESS:     271374  dtHIT:      15720  dtMISS:     255654
cpu0_L1D PREFETCH  REQUESTED:   19666985  ISSUED:   17546579  CROSSED:          0  USEFUL:     319942  USELESS:     736812
cpu0_L1D AVERAGE iMISS LATENCY: 0 cycles
cpu0_L1D AVERAGE dMISS LATENCY: 40.3469 cycles
cpu0_L1D AVERAGE itMISS LATENCY: 1.04488 cycles
cpu0_L1D AVERAGE dtMISS LATENCY: 8.08312 cycles
cpu0_L1D PAGE CROSSINGS (TLB HIT):         0 
cpu0_L1D PAGE CROSSINGS (TLB MISS):         0 
cpu0_L1D AVERAGE MISS LATENCY: 49.4749 cycles
cpu0_L2C TOTAL       ACCESS:    7439235  HIT:    3672151  MISS:    3767084  iACCESS:    3389181  iHIT:    2000064  iMISS:    1389117  dACCESS:    3770199  dHIT:    1627400  dMISS:    2142799  itACCESS:      30409  itHIT:       4412  itMISS:      25997  dtACCESS:     249446  dtHIT:      40275  dtMISS:     209171
cpu0_L2C LOAD         ACCESS:    1768683  HIT:     896956  MISS:     871727  iACCESS:     767687  iHIT:     478117  iMISS:     289570  dACCESS:    1000996  dHIT:     418839  dMISS:     582157  itACCESS:          0  itHIT:          0  itMISS:          0  dtACCESS:          0  dtHIT:          0  dtMISS:          0
cpu0_L2C RFO          ACCESS:     162428  HIT:      60727  MISS:     101701  iACCESS:          0  iHIT:          0  iMISS:          0  dACCESS:     162428  dHIT:      60727  dMISS:     101701  itACCESS:          0  itHIT:          0  itMISS:          0  dtACCESS:          0  dtHIT:          0  dtMISS:          0
cpu0_L2C PREFETCH     ACCESS:    4944398  HIT:    2387402  MISS:    2556996  iACCESS:    2621494  iHIT:    1521947  iMISS:    1099547  dACCESS:    2322904  dHIT:     865455  dMISS:    1457449  itACCESS:          0  itHIT:          0  itMISS:          0  dtACCESS:          0  dtHIT:          0  dtMISS:          0
cpu0_L2C WRITE        ACCESS:     283871  HIT:     282379  MISS:       1492  iACCESS:          0  iHIT:          0  iMISS:          0  dACCESS:     283871  dHIT:     282379  dMISS:       1492  itACCESS:          0  itHIT:          0  itMISS:          0  dtACCESS:          0  dtHIT:          0  dtMISS:          0
cpu0_L2C TRANSLATION  ACCESS:     279855  HIT:      44687  MISS:     235168  iACCESS:          0  iHIT:          0  iMISS:          0  dACCESS:          0  dHIT:          0  dMISS:          0  itACCESS:      30409  itHIT:       4412  itMISS:      25997  dtACCESS:     249446  dtHIT:      40275  dtMISS:     209171
cpu0_L2C PREFETCH  REQUESTED:    1531232  ISSUED:    1531207  CROSSED:          0  USEFUL:     382115  USELESS:     303975
cpu0_L2C AVERAGE iMISS LATENCY: 34.3846 cycles
cpu0_L2C AVERAGE dMISS LATENCY: 61.5585 cycles
cpu0_L2C AVERAGE itMISS LATENCY: 1.17199 cycles
cpu0_L2C AVERAGE dtMISS LATENCY: 9.02845 cycles
cpu0_L2C PAGE CROSSINGS (TLB HIT):         0 
cpu0_L2C PAGE CROSSINGS (TLB MISS):         0 
cpu0_L2C AVERAGE MISS LATENCY: 106.144 cycles
LLC TOTAL       ACCESS:    3734839  HIT:    1696233  MISS:    2038606  iACCESS:    1306300  iHIT:     612666  iMISS:     693634  dACCESS:    2193371  dHIT:    1029930  dMISS:    1163441  itACCESS:      25997  itHIT:       3778  itMISS:      22219  dtACCESS:     209171  dtHIT:      49859  dtMISS:     159312
LLC LOAD         ACCESS:     865477  HIT:     414375  MISS:     451102  iACCESS:     287997  iHIT:     139975  iMISS:     148022  dACCESS:     577480  dHIT:     274400  dMISS:     303080  itACCESS:          0  itHIT:          0  itMISS:          0  dtACCESS:          0  dtHIT:          0  dtMISS:          0
LLC RFO          ACCESS:     101696  HIT:      38241  MISS:      63455  iACCESS:          0  iHIT:          0  iMISS:          0  dACCESS:     101696  dHIT:      38241  dMISS:      63455  itACCESS:          0  itHIT:          0  itMISS:          0  dtACCESS:          0  dtHIT:          0  dtMISS:          0
LLC PREFETCH     ACCESS:    2370930  HIT:    1037237  MISS:    1333693  iACCESS:    1018303  iHIT:     472691  iMISS:     545612  dACCESS:    1352627  dHIT:     564546  dMISS:     788081  itACCESS:          0  itHIT:          0  itMISS:          0  dtACCESS:          0  dtHIT:          0  dtMISS:          0
LLC WRITE        ACCESS:     161568  HIT:     152743  MISS:       8825  iACCESS:          0  iHIT:          0  iMISS:          0  dACCESS:     161568  dHIT:     152743  dMISS:       8825  itACCESS:          0  itHIT:          0  itMISS:          0  dtACCESS:          0  dtHIT:          0  dtMISS:          0
LLC TRANSLATION  ACCESS:     235168  HIT:      53637  MISS:     181531  iACCESS:          0  iHIT:          0  iMISS:          0  dACCESS:          0  dHIT:          0  dMISS:          0  itACCESS:      25997  itHIT:       3778  itMISS:      22219  dtACCESS:     209171  dtHIT:      49859  dtMISS:     159312
LLC PREFETCH  REQUESTED:          0  ISSUED:          0  CROSSED:          0  USEFUL:          0  USELESS:          0
LLC AVERAGE iMISS LATENCY: 51.007 cycles
LLC AVERAGE dMISS LATENCY: 95.2827 cycles
LLC AVERAGE itMISS LATENCY: 1.91348 cycles
LLC AVERAGE dtMISS LATENCY: 14.6646 cycles
LLC PAGE CROSSINGS (TLB HIT):         0 
LLC PAGE CROSSINGS (TLB MISS):         0 
LLC AVERAGE MISS LATENCY: 162.868 cycles

PageTableWalker TOTAL       ACCESS:     107808  
PageTableWalker AVERAGE LATENCY: 5.24931 cycles
PageTableWalker TOTAL LATENCY: 565917 cycles

DRAM Statistics
Channel 0
 RQ ROW_BUFFER_HIT:     541384
  ROW_BUFFER_MISS:    1468637
 AVG DBUS CONGESTED CYCLE:    3.63707
 WQ ROW_BUFFER_HIT:      41424
  ROW_BUFFER_MISS:      29640  FULL:          0

