last_page:0x200000000000000
VMEM_RES_CAP:0x100000
PAGE_SIZE:4096
LOG2_PAGE_SIZE:12
LOG2_PAGE_TABLE_SIZE:9
page_table_levels:5
WARNING: physical memory size is smaller than virtual memory size
FDiP enabled with aggresivity 16

*** ChampSim Multicore Out-of-Order Simulator ***

Warmup Instructions: 50000000
Simulation Instructions: 100000000
Number of CPUs: 1
Small page size: 4096
Large page size: 2097152

CPU 0 Bimodal branch predictor
Basic BTB sets: 1024 ways: 8 indirect buffer size: 4096 RAS size: 64
Instruction page size distrubution: 0
Loading instruction page size distribution from /home/bsc/bsc018186/scratch/itp_asplos25_AE/dump/srv527_ap.pdst
Data page size distrubution: 0
Loading data page size distribution from /home/bsc/bsc018186/scratch/itp_asplos25_AE/dump/srv527_ap.pdst
cpu0_L2C IP-based stride prefetcher
cpu0_L1D next line prefetcher
CHiRPing...
cpu0_L1I next line prefetcher
Off-chip DRAM Size: 4 GiB Channels: 1 Width: 64-bit Data Rate: 3200 MT/s
Heartbeat CPU 0 instructions: 10000003 cycles: 2500229 heartbeat IPC: 3.99964 cumulative IPC: 3.99964 (Simulation time: 0 hr 0 min 37 sec) 
Heartbeat CPU 0 instructions: 20000001 cycles: 5000368 heartbeat IPC: 3.99978 cumulative IPC: 3.99971 (Simulation time: 0 hr 1 min 17 sec) 
Heartbeat CPU 0 instructions: 30000001 cycles: 7501025 heartbeat IPC: 3.99895 cumulative IPC: 3.99946 (Simulation time: 0 hr 1 min 57 sec) 
Heartbeat CPU 0 instructions: 40000001 cycles: 10001144 heartbeat IPC: 3.99981 cumulative IPC: 3.99955 (Simulation time: 0 hr 2 min 36 sec) 
Heartbeat CPU 0 instructions: 50000002 cycles: 12502580 heartbeat IPC: 3.99771 cumulative IPC: 3.99918 (Simulation time: 0 hr 3 min 16 sec) 
Warmup finished CPU 0 instructions: 50000002 cycles: 12502581 cumulative IPC: 3.99918 (Simulation time: 0 hr 3 min 16 sec) 

Warmup complete CPU 0 instructions: 50000002 cycles: 12502581 (Simulation time: 0 hr 3 min 16 sec) 

Heartbeat CPU 0 instructions: 60000004 cycles: 28612722 heartbeat IPC: 0.620728 cumulative IPC: 0.620728 (Simulation time: 0 hr 4 min 23 sec) 
Heartbeat CPU 0 instructions: 70000000 cycles: 46100054 heartbeat IPC: 0.571843 cumulative IPC: 0.595283 (Simulation time: 0 hr 5 min 32 sec) 
Heartbeat CPU 0 instructions: 80000000 cycles: 64003368 heartbeat IPC: 0.558556 cumulative IPC: 0.582516 (Simulation time: 0 hr 6 min 41 sec) 
Heartbeat CPU 0 instructions: 90000002 cycles: 80032024 heartbeat IPC: 0.623883 cumulative IPC: 0.592335 (Simulation time: 0 hr 7 min 49 sec) 
Heartbeat CPU 0 instructions: 100000003 cycles: 96021533 heartbeat IPC: 0.625411 cumulative IPC: 0.598667 (Simulation time: 0 hr 8 min 57 sec) 
*** Reached end of trace: /gpfs/projects/bsc18/MN4/bsc18/romol/ChampSim/traces/qualcomm_srv/srv527_ap.champsimtrace.xz
Heartbeat CPU 0 instructions: 110000000 cycles: 113392973 heartbeat IPC: 0.575658 cumulative IPC: 0.594705 (Simulation time: 0 hr 10 min 6 sec) 
Heartbeat CPU 0 instructions: 120000001 cycles: 130773188 heartbeat IPC: 0.575367 cumulative IPC: 0.591864 (Simulation time: 0 hr 11 min 14 sec) 
Heartbeat CPU 0 instructions: 130000001 cycles: 149151286 heartbeat IPC: 0.544126 cumulative IPC: 0.585443 (Simulation time: 0 hr 12 min 24 sec) 
Heartbeat CPU 0 instructions: 140000001 cycles: 164913295 heartbeat IPC: 0.634437 cumulative IPC: 0.59051 (Simulation time: 0 hr 13 min 31 sec) 
Heartbeat CPU 0 instructions: 150000003 cycles: 182095528 heartbeat IPC: 0.581997 cumulative IPC: 0.589648 (Simulation time: 0 hr 14 min 40 sec) 
Simulation finished CPU 0 instructions: 100000001 cycles: 169592948 cumulative IPC: 0.589648 (Simulation time: 0 hr 14 min 40 sec) 

Simulation complete CPU 0 instructions: 100000001 cycles: 169592948 (Simulation time: 0 hr 14 min 40 sec) 


ChampSim completed all CPUs

Saving instructions large page distribution to /home/bsc/bsc018186/scratch/itp_asplos25_AE/dump/srv527_ap.pdst...
Saving data large page distribution to /home/bsc/bsc018186/scratch/itp_asplos25_AE/dump/srv527_ap.pdst...
=== Simulation ===
CPU 0 runs /gpfs/projects/bsc18/MN4/bsc18/romol/ChampSim/traces/qualcomm_srv/srv527_ap.champsimtrace.xz

Region of Interest Statistics

CPU 0 cumulative IPC: 0.589648 instructions: 100000001 cycles: 169592948
CPU 0 Branch Prediction Accuracy: 82.8884% MPKI: 28.8941 Average ROB Occupancy at Mispredict: 12.1905
Branch type MPKI
BRANCH_DIRECT_JUMP: 1.01523
BRANCH_INDIRECT: 14.7113
BRANCH_CONDITIONAL: 9.65227
BRANCH_DIRECT_CALL: 1.80009
BRANCH_INDIRECT_CALL: 0.45526
BRANCH_RETURN: 1.25996

Instructions large pages: 0
Instructions small pages: 1134
Large page distribution for instructions: 0%

Data large pages: 0
Data small pages: 9370
Large page distribution for data: 0%

cpu0_L1I TOTAL       ACCESS:   31994627  HIT:   24906588  MISS:    7088039  iACCESS:   31994627  iHIT:   24906588  iMISS:    7088039  dACCESS:          0  dHIT:          0  dMISS:          0  itACCESS:          0  itHIT:          0  itMISS:          0  dtACCESS:          0  dtHIT:          0  dtMISS:          0
cpu0_L1I LOAD         ACCESS:    9153364  HIT:    7164802  MISS:    1988562  iACCESS:    9153364  iHIT:    7164802  iMISS:    1988562  dACCESS:          0  dHIT:          0  dMISS:          0  itACCESS:          0  itHIT:          0  itMISS:          0  dtACCESS:          0  dtHIT:          0  dtMISS:          0
cpu0_L1I RFO          ACCESS:          0  HIT:          0  MISS:          0  iACCESS:          0  iHIT:          0  iMISS:          0  dACCESS:          0  dHIT:          0  dMISS:          0  itACCESS:          0  itHIT:          0  itMISS:          0  dtACCESS:          0  dtHIT:          0  dtMISS:          0
cpu0_L1I PREFETCH     ACCESS:   22841263  HIT:   17741786  MISS:    5099477  iACCESS:   22841263  iHIT:   17741786  iMISS:    5099477  dACCESS:          0  dHIT:          0  dMISS:          0  itACCESS:          0  itHIT:          0  itMISS:          0  dtACCESS:          0  dtHIT:          0  dtMISS:          0
cpu0_L1I WRITE        ACCESS:          0  HIT:          0  MISS:          0  iACCESS:          0  iHIT:          0  iMISS:          0  dACCESS:          0  dHIT:          0  dMISS:          0  itACCESS:          0  itHIT:          0  itMISS:          0  dtACCESS:          0  dtHIT:          0  dtMISS:          0
cpu0_L1I TRANSLATION  ACCESS:          0  HIT:          0  MISS:          0  iACCESS:          0  iHIT:          0  iMISS:          0  dACCESS:          0  dHIT:          0  dMISS:          0  itACCESS:          0  itHIT:          0  itMISS:          0  dtACCESS:          0  dtHIT:          0  dtMISS:          0
cpu0_L1I PREFETCH  REQUESTED:   25073550  ISSUED:   25073550  CROSSED:          0  USEFUL:    1724941  USELESS:     563053
cpu0_L1I AVERAGE iMISS LATENCY: 16.5981 cycles
cpu0_L1I AVERAGE dMISS LATENCY: 0 cycles
cpu0_L1I AVERAGE itMISS LATENCY: 0 cycles
cpu0_L1I AVERAGE dtMISS LATENCY: 0 cycles
cpu0_L1I PAGE CROSSINGS (TLB HIT):         0 
cpu0_L1I PAGE CROSSINGS (TLB MISS):         0 
cpu0_L1I AVERAGE MISS LATENCY: 16.5981 cycles
cpu0_ITLB TOTAL       ACCESS:   26945955  HIT:   25181337  MISS:    1764618  iACCESS:   26945955  iHIT:   25181337  iMISS:    1764618  dACCESS:          0  dHIT:          0  dMISS:          0  itACCESS:          0  itHIT:          0  itMISS:          0  dtACCESS:          0  dtHIT:          0  dtMISS:          0
cpu0_ITLB LOAD         ACCESS:   26945955  HIT:   25181337  MISS:    1764618  iACCESS:   26945955  iHIT:   25181337  iMISS:    1764618  dACCESS:          0  dHIT:          0  dMISS:          0  itACCESS:          0  itHIT:          0  itMISS:          0  dtACCESS:          0  dtHIT:          0  dtMISS:          0
cpu0_ITLB RFO          ACCESS:          0  HIT:          0  MISS:          0  iACCESS:          0  iHIT:          0  iMISS:          0  dACCESS:          0  dHIT:          0  dMISS:          0  itACCESS:          0  itHIT:          0  itMISS:          0  dtACCESS:          0  dtHIT:          0  dtMISS:          0
cpu0_ITLB PREFETCH     ACCESS:          0  HIT:          0  MISS:          0  iACCESS:          0  iHIT:          0  iMISS:          0  dACCESS:          0  dHIT:          0  dMISS:          0  itACCESS:          0  itHIT:          0  itMISS:          0  dtACCESS:          0  dtHIT:          0  dtMISS:          0
cpu0_ITLB WRITE        ACCESS:          0  HIT:          0  MISS:          0  iACCESS:          0  iHIT:          0  iMISS:          0  dACCESS:          0  dHIT:          0  dMISS:          0  itACCESS:          0  itHIT:          0  itMISS:          0  dtACCESS:          0  dtHIT:          0  dtMISS:          0
cpu0_ITLB TRANSLATION  ACCESS:          0  HIT:          0  MISS:          0  iACCESS:          0  iHIT:          0  iMISS:          0  dACCESS:          0  dHIT:          0  dMISS:          0  itACCESS:          0  itHIT:          0  itMISS:          0  dtACCESS:          0  dtHIT:          0  dtMISS:          0
cpu0_ITLB PREFETCH  REQUESTED:          0  ISSUED:          0  CROSSED:          0  USEFUL:     285201  USELESS:      53384
cpu0_ITLB AVERAGE iMISS LATENCY: 6.52561 cycles
cpu0_ITLB AVERAGE dMISS LATENCY: 0 cycles
cpu0_ITLB AVERAGE itMISS LATENCY: 0 cycles
cpu0_ITLB AVERAGE dtMISS LATENCY: 0 cycles
cpu0_ITLB PAGE CROSSINGS (TLB HIT):         0 
cpu0_ITLB PAGE CROSSINGS (TLB MISS):         0 
cpu0_ITLB AVERAGE MISS LATENCY: 6.52561 cycles
cpu0_DTLB TOTAL       ACCESS:   27989324  HIT:   26185581  MISS:    1803743  iACCESS:          0  iHIT:          0  iMISS:          0  dACCESS:   27989324  dHIT:   26185581  dMISS:    1803743  itACCESS:          0  itHIT:          0  itMISS:          0  dtACCESS:          0  dtHIT:          0  dtMISS:          0
cpu0_DTLB LOAD         ACCESS:   27989324  HIT:   26185581  MISS:    1803743  iACCESS:          0  iHIT:          0  iMISS:          0  dACCESS:   27989324  dHIT:   26185581  dMISS:    1803743  itACCESS:          0  itHIT:          0  itMISS:          0  dtACCESS:          0  dtHIT:          0  dtMISS:          0
cpu0_DTLB RFO          ACCESS:          0  HIT:          0  MISS:          0  iACCESS:          0  iHIT:          0  iMISS:          0  dACCESS:          0  dHIT:          0  dMISS:          0  itACCESS:          0  itHIT:          0  itMISS:          0  dtACCESS:          0  dtHIT:          0  dtMISS:          0
cpu0_DTLB PREFETCH     ACCESS:          0  HIT:          0  MISS:          0  iACCESS:          0  iHIT:          0  iMISS:          0  dACCESS:          0  dHIT:          0  dMISS:          0  itACCESS:          0  itHIT:          0  itMISS:          0  dtACCESS:          0  dtHIT:          0  dtMISS:          0
cpu0_DTLB WRITE        ACCESS:          0  HIT:          0  MISS:          0  iACCESS:          0  iHIT:          0  iMISS:          0  dACCESS:          0  dHIT:          0  dMISS:          0  itACCESS:          0  itHIT:          0  itMISS:          0  dtACCESS:          0  dtHIT:          0  dtMISS:          0
cpu0_DTLB TRANSLATION  ACCESS:          0  HIT:          0  MISS:          0  iACCESS:          0  iHIT:          0  iMISS:          0  dACCESS:          0  dHIT:          0  dMISS:          0  itACCESS:          0  itHIT:          0  itMISS:          0  dtACCESS:          0  dtHIT:          0  dtMISS:          0
cpu0_DTLB PREFETCH  REQUESTED:          0  ISSUED:          0  CROSSED:          0  USEFUL:          0  USELESS:          0
cpu0_DTLB AVERAGE iMISS LATENCY: 0 cycles
cpu0_DTLB AVERAGE dMISS LATENCY: 18.8783 cycles
cpu0_DTLB AVERAGE itMISS LATENCY: 0 cycles
cpu0_DTLB AVERAGE dtMISS LATENCY: 0 cycles
cpu0_DTLB PAGE CROSSINGS (TLB HIT):         0 
cpu0_DTLB PAGE CROSSINGS (TLB MISS):         0 
cpu0_DTLB AVERAGE MISS LATENCY: 18.8783 cycles
cpu0_STLB TOTAL       ACCESS:    1405354  HIT:    1219234  MISS:     186120  iACCESS:     338589  iHIT:     272735  iMISS:      65854  dACCESS:    1066765  dHIT:     946499  dMISS:     120266  itACCESS:          0  itHIT:          0  itMISS:          0  dtACCESS:          0  dtHIT:          0  dtMISS:          0
cpu0_STLB LOAD         ACCESS:    1405354  HIT:    1219234  MISS:     186120  iACCESS:     338589  iHIT:     272735  iMISS:      65854  dACCESS:    1066765  dHIT:     946499  dMISS:     120266  itACCESS:          0  itHIT:          0  itMISS:          0  dtACCESS:          0  dtHIT:          0  dtMISS:          0
cpu0_STLB RFO          ACCESS:          0  HIT:          0  MISS:          0  iACCESS:          0  iHIT:          0  iMISS:          0  dACCESS:          0  dHIT:          0  dMISS:          0  itACCESS:          0  itHIT:          0  itMISS:          0  dtACCESS:          0  dtHIT:          0  dtMISS:          0
cpu0_STLB PREFETCH     ACCESS:          0  HIT:          0  MISS:          0  iACCESS:          0  iHIT:          0  iMISS:          0  dACCESS:          0  dHIT:          0  dMISS:          0  itACCESS:          0  itHIT:          0  itMISS:          0  dtACCESS:          0  dtHIT:          0  dtMISS:          0
cpu0_STLB WRITE        ACCESS:          0  HIT:          0  MISS:          0  iACCESS:          0  iHIT:          0  iMISS:          0  dACCESS:          0  dHIT:          0  dMISS:          0  itACCESS:          0  itHIT:          0  itMISS:          0  dtACCESS:          0  dtHIT:          0  dtMISS:          0
cpu0_STLB TRANSLATION  ACCESS:          0  HIT:          0  MISS:          0  iACCESS:          0  iHIT:          0  iMISS:          0  dACCESS:          0  dHIT:          0  dMISS:          0  itACCESS:          0  itHIT:          0  itMISS:          0  dtACCESS:          0  dtHIT:          0  dtMISS:          0
cpu0_STLB PREFETCH  REQUESTED:          0  ISSUED:          0  CROSSED:          0  USEFUL:          0  USELESS:          0
cpu0_STLB AVERAGE iMISS LATENCY: 47.4044 cycles
cpu0_STLB AVERAGE dMISS LATENCY: 137.104 cycles
cpu0_STLB AVERAGE itMISS LATENCY: 0 cycles
cpu0_STLB AVERAGE dtMISS LATENCY: 0 cycles
cpu0_STLB PAGE CROSSINGS (TLB HIT):         0 
cpu0_STLB PAGE CROSSINGS (TLB MISS):         0 
cpu0_STLB AVERAGE MISS LATENCY: 184.509 cycles
cpu0_L1D TOTAL       ACCESS:   42300857  HIT:   38480512  MISS:    3820345  iACCESS:          0  iHIT:          0  iMISS:          0  dACCESS:   42058153  dHIT:   38458790  dMISS:    3599363  itACCESS:      71289  itHIT:      10452  itMISS:      60837  dtACCESS:     171415  dtHIT:      11270  dtMISS:     160145
cpu0_L1D LOAD         ACCESS:   19727412  HIT:   18156144  MISS:    1571268  iACCESS:          0  iHIT:          0  iMISS:          0  dACCESS:   19727412  dHIT:   18156144  dMISS:    1571268  itACCESS:          0  itHIT:          0  itMISS:          0  dtACCESS:          0  dtHIT:          0  dtMISS:          0
cpu0_L1D RFO          ACCESS:          0  HIT:          0  MISS:          0  iACCESS:          0  iHIT:          0  iMISS:          0  dACCESS:          0  dHIT:          0  dMISS:          0  itACCESS:          0  itHIT:          0  itMISS:          0  dtACCESS:          0  dtHIT:          0  dtMISS:          0
cpu0_L1D PREFETCH     ACCESS:   12479142  HIT:   11053720  MISS:    1425422  iACCESS:          0  iHIT:          0  iMISS:          0  dACCESS:   12479142  dHIT:   11053720  dMISS:    1425422  itACCESS:          0  itHIT:          0  itMISS:          0  dtACCESS:          0  dtHIT:          0  dtMISS:          0
cpu0_L1D WRITE        ACCESS:    9851599  HIT:    9248926  MISS:     602673  iACCESS:          0  iHIT:          0  iMISS:          0  dACCESS:    9851599  dHIT:    9248926  dMISS:     602673  itACCESS:          0  itHIT:          0  itMISS:          0  dtACCESS:          0  dtHIT:          0  dtMISS:          0
cpu0_L1D TRANSLATION  ACCESS:     242704  HIT:      21722  MISS:     220982  iACCESS:          0  iHIT:          0  iMISS:          0  dACCESS:          0  dHIT:          0  dMISS:          0  itACCESS:      71289  itHIT:      10452  itMISS:      60837  dtACCESS:     171415  dtHIT:      11270  dtMISS:     160145
cpu0_L1D PREFETCH  REQUESTED:   19727412  ISSUED:   17895035  CROSSED:          0  USEFUL:     298142  USELESS:     619475
cpu0_L1D AVERAGE iMISS LATENCY: 0 cycles
cpu0_L1D AVERAGE dMISS LATENCY: 37.3611 cycles
cpu0_L1D AVERAGE itMISS LATENCY: 2.15797 cycles
cpu0_L1D AVERAGE dtMISS LATENCY: 6.06266 cycles
cpu0_L1D PAGE CROSSINGS (TLB HIT):         0 
cpu0_L1D PAGE CROSSINGS (TLB MISS):         0 
cpu0_L1D AVERAGE MISS LATENCY: 45.5817 cycles
cpu0_L2C TOTAL       ACCESS:    6416117  HIT:    3522080  MISS:    2894037  iACCESS:    2969429  iHIT:    1937997  iMISS:    1031432  dACCESS:    3233528  dHIT:    1553950  dMISS:    1679578  itACCESS:      60589  itHIT:      10948  itMISS:      49641  dtACCESS:     152571  dtHIT:      19185  dtMISS:     133386
cpu0_L2C LOAD         ACCESS:    1560317  HIT:     888892  MISS:     671425  iACCESS:     716253  iHIT:     495075  iMISS:     221178  dACCESS:     844064  dHIT:     393817  dMISS:     450247  itACCESS:          0  itHIT:          0  itMISS:          0  dtACCESS:          0  dtHIT:          0  dtMISS:          0
cpu0_L2C RFO          ACCESS:     140587  HIT:      62855  MISS:      77732  iACCESS:          0  iHIT:          0  iMISS:          0  dACCESS:     140587  dHIT:      62855  dMISS:      77732  itACCESS:          0  itHIT:          0  itMISS:          0  dtACCESS:          0  dtHIT:          0  dtMISS:          0
cpu0_L2C PREFETCH     ACCESS:    4233883  HIT:    2272770  MISS:    1961113  iACCESS:    2253176  iHIT:    1442922  iMISS:     810254  dACCESS:    1980707  dHIT:     829848  dMISS:    1150859  itACCESS:          0  itHIT:          0  itMISS:          0  dtACCESS:          0  dtHIT:          0  dtMISS:          0
cpu0_L2C WRITE        ACCESS:     268170  HIT:     267430  MISS:        740  iACCESS:          0  iHIT:          0  iMISS:          0  dACCESS:     268170  dHIT:     267430  dMISS:        740  itACCESS:          0  itHIT:          0  itMISS:          0  dtACCESS:          0  dtHIT:          0  dtMISS:          0
cpu0_L2C TRANSLATION  ACCESS:     213160  HIT:      30133  MISS:     183027  iACCESS:          0  iHIT:          0  iMISS:          0  dACCESS:          0  dHIT:          0  dMISS:          0  itACCESS:      60589  itHIT:      10948  itMISS:      49641  dtACCESS:     152571  dtHIT:      19185  dtMISS:     133386
cpu0_L2C PREFETCH  REQUESTED:    1293246  ISSUED:    1293246  CROSSED:          0  USEFUL:     311680  USELESS:     243438
cpu0_L2C AVERAGE iMISS LATENCY: 31.462 cycles
cpu0_L2C AVERAGE dMISS LATENCY: 62.2513 cycles
cpu0_L2C AVERAGE itMISS LATENCY: 2.6424 cycles
cpu0_L2C AVERAGE dtMISS LATENCY: 7.47895 cycles
cpu0_L2C PAGE CROSSINGS (TLB HIT):         0 
cpu0_L2C PAGE CROSSINGS (TLB MISS):         0 
cpu0_L2C AVERAGE MISS LATENCY: 103.835 cycles
LLC TOTAL       ACCESS:    2889650  HIT:    1359236  MISS:    1530414  iACCESS:     964336  iHIT:     474180  iMISS:     490156  dACCESS:    1742287  dHIT:     843222  dMISS:     899065  itACCESS:      49641  itHIT:      11084  itMISS:      38557  dtACCESS:     133386  dtHIT:      30750  dtMISS:     102636
LLC LOAD         ACCESS:     668486  HIT:     328359  MISS:     340127  iACCESS:     220076  iHIT:     108762  iMISS:     111314  dACCESS:     448410  dHIT:     219597  dMISS:     228813  itACCESS:          0  itHIT:          0  itMISS:          0  dtACCESS:          0  dtHIT:          0  dtMISS:          0
LLC RFO          ACCESS:      77731  HIT:      29173  MISS:      48558  iACCESS:          0  iHIT:          0  iMISS:          0  dACCESS:      77731  dHIT:      29173  dMISS:      48558  itACCESS:          0  itHIT:          0  itMISS:          0  dtACCESS:          0  dtHIT:          0  dtMISS:          0
LLC PREFETCH     ACCESS:    1821293  HIT:     828192  MISS:     993101  iACCESS:     744260  iHIT:     365418  iMISS:     378842  dACCESS:    1077033  dHIT:     462774  dMISS:     614259  itACCESS:          0  itHIT:          0  itMISS:          0  dtACCESS:          0  dtHIT:          0  dtMISS:          0
LLC WRITE        ACCESS:     139113  HIT:     131678  MISS:       7435  iACCESS:          0  iHIT:          0  iMISS:          0  dACCESS:     139113  dHIT:     131678  dMISS:       7435  itACCESS:          0  itHIT:          0  itMISS:          0  dtACCESS:          0  dtHIT:          0  dtMISS:          0
LLC TRANSLATION  ACCESS:     183027  HIT:      41834  MISS:     141193  iACCESS:          0  iHIT:          0  iMISS:          0  dACCESS:          0  dHIT:          0  dMISS:          0  itACCESS:      49641  itHIT:      11084  itMISS:      38557  dtACCESS:     133386  dtHIT:      30750  dtMISS:     102636
LLC PREFETCH  REQUESTED:          0  ISSUED:          0  CROSSED:          0  USEFUL:          0  USELESS:          0
LLC AVERAGE iMISS LATENCY: 47.1658 cycles
LLC AVERAGE dMISS LATENCY: 97.7481 cycles
LLC AVERAGE itMISS LATENCY: 4.35723 cycles
LLC AVERAGE dtMISS LATENCY: 12.428 cycles
LLC PAGE CROSSINGS (TLB HIT):         0 
LLC PAGE CROSSINGS (TLB MISS):         0 
LLC AVERAGE MISS LATENCY: 161.699 cycles

PageTableWalker TOTAL       ACCESS:      96223  
PageTableWalker AVERAGE LATENCY: 5.00254 cycles
PageTableWalker TOTAL LATENCY: 481359 cycles

DRAM Statistics
Channel 0
 RQ ROW_BUFFER_HIT:     415828
  ROW_BUFFER_MISS:    1105272
 AVG DBUS CONGESTED CYCLE:    3.64317
 WQ ROW_BUFFER_HIT:      33348
  ROW_BUFFER_MISS:      27631  FULL:          0

