last_page:0x200000000000000
VMEM_RES_CAP:0x100000
PAGE_SIZE:4096
LOG2_PAGE_SIZE:12
LOG2_PAGE_TABLE_SIZE:9
page_table_levels:5
WARNING: physical memory size is smaller than virtual memory size
FDiP enabled with aggresivity 16

*** ChampSim Multicore Out-of-Order Simulator ***

Warmup Instructions: 50000000
Simulation Instructions: 100000000
Number of CPUs: 1
Small page size: 4096
Large page size: 2097152

CPU 0 Bimodal branch predictor
Basic BTB sets: 1024 ways: 8 indirect buffer size: 4096 RAS size: 64
Instruction page size distrubution: 0
Loading instruction page size distribution from /home/bsc/bsc018186/scratch/itp_asplos25_AE/dump/srv551_ap.pdst
Data page size distrubution: 0
Loading data page size distribution from /home/bsc/bsc018186/scratch/itp_asplos25_AE/dump/srv551_ap.pdst
cpu0_L2C IP-based stride prefetcher
cpu0_L2C is using PTP replacement policy:
	TLB_STRESS_THRESHOLD:0
	PTE_EVICTION_RATIO:0
cpu0_L1D next line prefetcher
cpu0_STLB using iTP with max lru@8
cpu0_STLB using iTP with instr@0 and data@2
Init sat counter with 3 bits (max:50).
cpu0_L1I next line prefetcher
Off-chip DRAM Size: 4 GiB Channels: 1 Width: 64-bit Data Rate: 3200 MT/s
Heartbeat CPU 0 instructions: 10000000 cycles: 2500253 heartbeat IPC: 3.9996 cumulative IPC: 3.9996 (Simulation time: 0 hr 0 min 37 sec) 
Heartbeat CPU 0 instructions: 20000000 cycles: 5000264 heartbeat IPC: 3.99999 cumulative IPC: 3.99979 (Simulation time: 0 hr 1 min 17 sec) 
Heartbeat CPU 0 instructions: 30000002 cycles: 7500344 heartbeat IPC: 3.99988 cumulative IPC: 3.99982 (Simulation time: 0 hr 1 min 56 sec) 
Heartbeat CPU 0 instructions: 40000003 cycles: 10000387 heartbeat IPC: 3.99994 cumulative IPC: 3.99985 (Simulation time: 0 hr 2 min 40 sec) 
Heartbeat CPU 0 instructions: 50000000 cycles: 12500430 heartbeat IPC: 3.99994 cumulative IPC: 3.99987 (Simulation time: 0 hr 3 min 25 sec) 
Warmup finished CPU 0 instructions: 50000000 cycles: 12500431 cumulative IPC: 3.99987 (Simulation time: 0 hr 3 min 25 sec) 

Warmup complete CPU 0 instructions: 50000000 cycles: 12500431 (Simulation time: 0 hr 3 min 25 sec) 

Heartbeat CPU 0 instructions: 60000000 cycles: 28967582 heartbeat IPC: 0.60727 cumulative IPC: 0.60727 (Simulation time: 0 hr 4 min 38 sec) 
Heartbeat CPU 0 instructions: 70000000 cycles: 36473611 heartbeat IPC: 1.33227 cumulative IPC: 0.834266 (Simulation time: 0 hr 5 min 42 sec) 
Heartbeat CPU 0 instructions: 80000004 cycles: 55523867 heartbeat IPC: 0.524928 cumulative IPC: 0.697295 (Simulation time: 0 hr 6 min 57 sec) 
Heartbeat CPU 0 instructions: 90000003 cycles: 73709621 heartbeat IPC: 0.549881 cumulative IPC: 0.653497 (Simulation time: 0 hr 8 min 12 sec) 
Heartbeat CPU 0 instructions: 100000002 cycles: 92616772 heartbeat IPC: 0.528901 cumulative IPC: 0.624093 (Simulation time: 0 hr 9 min 25 sec) 
*** Reached end of trace: /gpfs/projects/bsc18/MN4/bsc18/romol/ChampSim/traces/qualcomm_srv/srv551_ap.champsimtrace.xz
Heartbeat CPU 0 instructions: 110000001 cycles: 110523888 heartbeat IPC: 0.558438 cumulative IPC: 0.612099 (Simulation time: 0 hr 10 min 33 sec) 
Heartbeat CPU 0 instructions: 120000003 cycles: 128898087 heartbeat IPC: 0.544242 cumulative IPC: 0.601387 (Simulation time: 0 hr 11 min 46 sec) 
Heartbeat CPU 0 instructions: 130000003 cycles: 148772097 heartbeat IPC: 0.50317 cumulative IPC: 0.587063 (Simulation time: 0 hr 12 min 57 sec) 
Heartbeat CPU 0 instructions: 140000001 cycles: 168995970 heartbeat IPC: 0.494466 cumulative IPC: 0.575097 (Simulation time: 0 hr 14 min 8 sec) 
Heartbeat CPU 0 instructions: 150000003 cycles: 188698529 heartbeat IPC: 0.507549 cumulative IPC: 0.567544 (Simulation time: 0 hr 15 min 18 sec) 
Simulation finished CPU 0 instructions: 100000003 cycles: 176198099 cumulative IPC: 0.567544 (Simulation time: 0 hr 15 min 18 sec) 

Simulation complete CPU 0 instructions: 100000003 cycles: 176198099 (Simulation time: 0 hr 15 min 18 sec) 


ChampSim completed all CPUs

Saving instructions large page distribution to /home/bsc/bsc018186/scratch/itp_asplos25_AE/dump/srv551_ap.pdst...
Saving data large page distribution to /home/bsc/bsc018186/scratch/itp_asplos25_AE/dump/srv551_ap.pdst...
=== Simulation ===
CPU 0 runs /gpfs/projects/bsc18/MN4/bsc18/romol/ChampSim/traces/qualcomm_srv/srv551_ap.champsimtrace.xz

Region of Interest Statistics

CPU 0 cumulative IPC: 0.567544 instructions: 100000003 cycles: 176198099
CPU 0 Branch Prediction Accuracy: 83.1561% MPKI: 32.5194 Average ROB Occupancy at Mispredict: 12.2728
Branch type MPKI
BRANCH_DIRECT_JUMP: 1.15096
BRANCH_INDIRECT: 16.5939
BRANCH_CONDITIONAL: 10.3702
BRANCH_DIRECT_CALL: 2.16571
BRANCH_INDIRECT_CALL: 0.69363
BRANCH_RETURN: 1.545

Instructions large pages: 0
Instructions small pages: 6351
Large page distribution for instructions: 0%

Data large pages: 0
Data small pages: 5175
Large page distribution for data: 0%

cpu0_L1I TOTAL       ACCESS:   34754711  HIT:   27426375  MISS:    7328336  iACCESS:   34754711  iHIT:   27426375  iMISS:    7328336  dACCESS:          0  dHIT:          0  dMISS:          0  itACCESS:          0  itHIT:          0  itMISS:          0  dtACCESS:          0  dtHIT:          0  dtMISS:          0
cpu0_L1I LOAD         ACCESS:    9214977  HIT:    7203874  MISS:    2011103  iACCESS:    9214977  iHIT:    7203874  iMISS:    2011103  dACCESS:          0  dHIT:          0  dMISS:          0  itACCESS:          0  itHIT:          0  itMISS:          0  dtACCESS:          0  dtHIT:          0  dtMISS:          0
cpu0_L1I RFO          ACCESS:          0  HIT:          0  MISS:          0  iACCESS:          0  iHIT:          0  iMISS:          0  dACCESS:          0  dHIT:          0  dMISS:          0  itACCESS:          0  itHIT:          0  itMISS:          0  dtACCESS:          0  dtHIT:          0  dtMISS:          0
cpu0_L1I PREFETCH     ACCESS:   25539734  HIT:   20222501  MISS:    5317233  iACCESS:   25539734  iHIT:   20222501  iMISS:    5317233  dACCESS:          0  dHIT:          0  dMISS:          0  itACCESS:          0  itHIT:          0  itMISS:          0  dtACCESS:          0  dtHIT:          0  dtMISS:          0
cpu0_L1I WRITE        ACCESS:          0  HIT:          0  MISS:          0  iACCESS:          0  iHIT:          0  iMISS:          0  dACCESS:          0  dHIT:          0  dMISS:          0  itACCESS:          0  itHIT:          0  itMISS:          0  dtACCESS:          0  dtHIT:          0  dtMISS:          0
cpu0_L1I TRANSLATION  ACCESS:          0  HIT:          0  MISS:          0  iACCESS:          0  iHIT:          0  iMISS:          0  dACCESS:          0  dHIT:          0  dMISS:          0  itACCESS:          0  itHIT:          0  itMISS:          0  dtACCESS:          0  dtHIT:          0  dtMISS:          0
cpu0_L1I PREFETCH  REQUESTED:   27508574  ISSUED:   27507013  CROSSED:          0  USEFUL:    1747787  USELESS:     582307
cpu0_L1I AVERAGE iMISS LATENCY: 19.4281 cycles
cpu0_L1I AVERAGE dMISS LATENCY: 0 cycles
cpu0_L1I AVERAGE itMISS LATENCY: 0 cycles
cpu0_L1I AVERAGE dtMISS LATENCY: 0 cycles
cpu0_L1I PAGE CROSSINGS (TLB HIT):         0 
cpu0_L1I PAGE CROSSINGS (TLB MISS):         0 
cpu0_L1I AVERAGE MISS LATENCY: 19.4281 cycles
cpu0_ITLB TOTAL       ACCESS:   29181016  HIT:   27463578  MISS:    1717438  iACCESS:   29181016  iHIT:   27463578  iMISS:    1717438  dACCESS:          0  dHIT:          0  dMISS:          0  itACCESS:          0  itHIT:          0  itMISS:          0  dtACCESS:          0  dtHIT:          0  dtMISS:          0
cpu0_ITLB LOAD         ACCESS:   29181016  HIT:   27463578  MISS:    1717438  iACCESS:   29181016  iHIT:   27463578  iMISS:    1717438  dACCESS:          0  dHIT:          0  dMISS:          0  itACCESS:          0  itHIT:          0  itMISS:          0  dtACCESS:          0  dtHIT:          0  dtMISS:          0
cpu0_ITLB RFO          ACCESS:          0  HIT:          0  MISS:          0  iACCESS:          0  iHIT:          0  iMISS:          0  dACCESS:          0  dHIT:          0  dMISS:          0  itACCESS:          0  itHIT:          0  itMISS:          0  dtACCESS:          0  dtHIT:          0  dtMISS:          0
cpu0_ITLB PREFETCH     ACCESS:          0  HIT:          0  MISS:          0  iACCESS:          0  iHIT:          0  iMISS:          0  dACCESS:          0  dHIT:          0  dMISS:          0  itACCESS:          0  itHIT:          0  itMISS:          0  dtACCESS:          0  dtHIT:          0  dtMISS:          0
cpu0_ITLB WRITE        ACCESS:          0  HIT:          0  MISS:          0  iACCESS:          0  iHIT:          0  iMISS:          0  dACCESS:          0  dHIT:          0  dMISS:          0  itACCESS:          0  itHIT:          0  itMISS:          0  dtACCESS:          0  dtHIT:          0  dtMISS:          0
cpu0_ITLB TRANSLATION  ACCESS:          0  HIT:          0  MISS:          0  iACCESS:          0  iHIT:          0  iMISS:          0  dACCESS:          0  dHIT:          0  dMISS:          0  itACCESS:          0  itHIT:          0  itMISS:          0  dtACCESS:          0  dtHIT:          0  dtMISS:          0
cpu0_ITLB PREFETCH  REQUESTED:          0  ISSUED:          0  CROSSED:          0  USEFUL:     293106  USELESS:      54510
cpu0_ITLB AVERAGE iMISS LATENCY: 3.06146 cycles
cpu0_ITLB AVERAGE dMISS LATENCY: 0 cycles
cpu0_ITLB AVERAGE itMISS LATENCY: 0 cycles
cpu0_ITLB AVERAGE dtMISS LATENCY: 0 cycles
cpu0_ITLB PAGE CROSSINGS (TLB HIT):         0 
cpu0_ITLB PAGE CROSSINGS (TLB MISS):         0 
cpu0_ITLB AVERAGE MISS LATENCY: 3.06146 cycles
cpu0_DTLB TOTAL       ACCESS:   29808826  HIT:   25461793  MISS:    4347033  iACCESS:          0  iHIT:          0  iMISS:          0  dACCESS:   29808826  dHIT:   25461793  dMISS:    4347033  itACCESS:          0  itHIT:          0  itMISS:          0  dtACCESS:          0  dtHIT:          0  dtMISS:          0
cpu0_DTLB LOAD         ACCESS:   29808826  HIT:   25461793  MISS:    4347033  iACCESS:          0  iHIT:          0  iMISS:          0  dACCESS:   29808826  dHIT:   25461793  dMISS:    4347033  itACCESS:          0  itHIT:          0  itMISS:          0  dtACCESS:          0  dtHIT:          0  dtMISS:          0
cpu0_DTLB RFO          ACCESS:          0  HIT:          0  MISS:          0  iACCESS:          0  iHIT:          0  iMISS:          0  dACCESS:          0  dHIT:          0  dMISS:          0  itACCESS:          0  itHIT:          0  itMISS:          0  dtACCESS:          0  dtHIT:          0  dtMISS:          0
cpu0_DTLB PREFETCH     ACCESS:          0  HIT:          0  MISS:          0  iACCESS:          0  iHIT:          0  iMISS:          0  dACCESS:          0  dHIT:          0  dMISS:          0  itACCESS:          0  itHIT:          0  itMISS:          0  dtACCESS:          0  dtHIT:          0  dtMISS:          0
cpu0_DTLB WRITE        ACCESS:          0  HIT:          0  MISS:          0  iACCESS:          0  iHIT:          0  iMISS:          0  dACCESS:          0  dHIT:          0  dMISS:          0  itACCESS:          0  itHIT:          0  itMISS:          0  dtACCESS:          0  dtHIT:          0  dtMISS:          0
cpu0_DTLB TRANSLATION  ACCESS:          0  HIT:          0  MISS:          0  iACCESS:          0  iHIT:          0  iMISS:          0  dACCESS:          0  dHIT:          0  dMISS:          0  itACCESS:          0  itHIT:          0  itMISS:          0  dtACCESS:          0  dtHIT:          0  dtMISS:          0
cpu0_DTLB PREFETCH  REQUESTED:          0  ISSUED:          0  CROSSED:          0  USEFUL:          0  USELESS:          0
cpu0_DTLB AVERAGE iMISS LATENCY: 0 cycles
cpu0_DTLB AVERAGE dMISS LATENCY: 8.43401 cycles
cpu0_DTLB AVERAGE itMISS LATENCY: 0 cycles
cpu0_DTLB AVERAGE dtMISS LATENCY: 0 cycles
cpu0_DTLB PAGE CROSSINGS (TLB HIT):         0 
cpu0_DTLB PAGE CROSSINGS (TLB MISS):         0 
cpu0_DTLB AVERAGE MISS LATENCY: 8.43401 cycles
cpu0_STLB TOTAL       ACCESS:    2662011  HIT:    2476611  MISS:     185400  iACCESS:     347620  iHIT:     326109  iMISS:      21511  dACCESS:    2314391  dHIT:    2150502  dMISS:     163889  itACCESS:          0  itHIT:          0  itMISS:          0  dtACCESS:          0  dtHIT:          0  dtMISS:          0
cpu0_STLB LOAD         ACCESS:    2662011  HIT:    2476611  MISS:     185400  iACCESS:     347620  iHIT:     326109  iMISS:      21511  dACCESS:    2314391  dHIT:    2150502  dMISS:     163889  itACCESS:          0  itHIT:          0  itMISS:          0  dtACCESS:          0  dtHIT:          0  dtMISS:          0
cpu0_STLB RFO          ACCESS:          0  HIT:          0  MISS:          0  iACCESS:          0  iHIT:          0  iMISS:          0  dACCESS:          0  dHIT:          0  dMISS:          0  itACCESS:          0  itHIT:          0  itMISS:          0  dtACCESS:          0  dtHIT:          0  dtMISS:          0
cpu0_STLB PREFETCH     ACCESS:          0  HIT:          0  MISS:          0  iACCESS:          0  iHIT:          0  iMISS:          0  dACCESS:          0  dHIT:          0  dMISS:          0  itACCESS:          0  itHIT:          0  itMISS:          0  dtACCESS:          0  dtHIT:          0  dtMISS:          0
cpu0_STLB WRITE        ACCESS:          0  HIT:          0  MISS:          0  iACCESS:          0  iHIT:          0  iMISS:          0  dACCESS:          0  dHIT:          0  dMISS:          0  itACCESS:          0  itHIT:          0  itMISS:          0  dtACCESS:          0  dtHIT:          0  dtMISS:          0
cpu0_STLB TRANSLATION  ACCESS:          0  HIT:          0  MISS:          0  iACCESS:          0  iHIT:          0  iMISS:          0  dACCESS:          0  dHIT:          0  dMISS:          0  itACCESS:          0  itHIT:          0  itMISS:          0  dtACCESS:          0  dtHIT:          0  dtMISS:          0
cpu0_STLB PREFETCH  REQUESTED:          0  ISSUED:          0  CROSSED:          0  USEFUL:          0  USELESS:          0
cpu0_STLB AVERAGE iMISS LATENCY: 13.7307 cycles
cpu0_STLB AVERAGE dMISS LATENCY: 96.6138 cycles
cpu0_STLB AVERAGE itMISS LATENCY: 0 cycles
cpu0_STLB AVERAGE dtMISS LATENCY: 0 cycles
cpu0_STLB PAGE CROSSINGS (TLB HIT):         0 
cpu0_STLB PAGE CROSSINGS (TLB MISS):         0 
cpu0_STLB AVERAGE MISS LATENCY: 110.345 cycles
cpu0_L1D TOTAL       ACCESS:   46526806  HIT:   38968310  MISS:    7558496  iACCESS:          0  iHIT:          0  iMISS:          0  dACCESS:   46279853  dHIT:   38952573  dMISS:    7327280  itACCESS:      24621  itHIT:       1989  itMISS:      22632  dtACCESS:     222332  dtHIT:      13748  dtMISS:     208584
cpu0_L1D LOAD         ACCESS:   22435826  HIT:   18171650  MISS:    4264176  iACCESS:          0  iHIT:          0  iMISS:          0  dACCESS:   22435826  dHIT:   18171650  dMISS:    4264176  itACCESS:          0  itHIT:          0  itMISS:          0  dtACCESS:          0  dtHIT:          0  dtMISS:          0
cpu0_L1D RFO          ACCESS:          0  HIT:          0  MISS:          0  iACCESS:          0  iHIT:          0  iMISS:          0  dACCESS:          0  dHIT:          0  dMISS:          0  itACCESS:          0  itHIT:          0  itMISS:          0  dtACCESS:          0  dtHIT:          0  dtMISS:          0
cpu0_L1D PREFETCH     ACCESS:   14040738  HIT:   11447427  MISS:    2593311  iACCESS:          0  iHIT:          0  iMISS:          0  dACCESS:   14040738  dHIT:   11447427  dMISS:    2593311  itACCESS:          0  itHIT:          0  itMISS:          0  dtACCESS:          0  dtHIT:          0  dtMISS:          0
cpu0_L1D WRITE        ACCESS:    9803289  HIT:    9333496  MISS:     469793  iACCESS:          0  iHIT:          0  iMISS:          0  dACCESS:    9803289  dHIT:    9333496  dMISS:     469793  itACCESS:          0  itHIT:          0  itMISS:          0  dtACCESS:          0  dtHIT:          0  dtMISS:          0
cpu0_L1D TRANSLATION  ACCESS:     246953  HIT:      15737  MISS:     231216  iACCESS:          0  iHIT:          0  iMISS:          0  dACCESS:          0  dHIT:          0  dMISS:          0  itACCESS:      24621  itHIT:       1989  itMISS:      22632  dtACCESS:     222332  dtHIT:      13748  dtMISS:     208584
cpu0_L1D PREFETCH  REQUESTED:   22435826  ISSUED:   17696647  CROSSED:          0  USEFUL:     277528  USELESS:     746249
cpu0_L1D AVERAGE iMISS LATENCY: 0 cycles
cpu0_L1D AVERAGE dMISS LATENCY: 25.3308 cycles
cpu0_L1D AVERAGE itMISS LATENCY: 0.306726 cycles
cpu0_L1D AVERAGE dtMISS LATENCY: 2.08237 cycles
cpu0_L1D PAGE CROSSINGS (TLB HIT):         0 
cpu0_L1D PAGE CROSSINGS (TLB MISS):         0 
cpu0_L1D AVERAGE MISS LATENCY: 27.7199 cycles
cpu0_L2C TOTAL       ACCESS:    8264428  HIT:    2241095  MISS:    6023333  iACCESS:    2973491  iHIT:     845636  iMISS:    2127855  dACCESS:    5063621  dHIT:    1271465  dMISS:    3792156  itACCESS:      22632  itHIT:       8552  itMISS:      14080  dtACCESS:     204684  dtHIT:     115442  dtMISS:      89242
cpu0_L2C LOAD         ACCESS:    3183558  HIT:     873050  MISS:    2310508  iACCESS:     675836  iHIT:     150513  iMISS:     525323  dACCESS:    2507722  dHIT:     722537  dMISS:    1785185  itACCESS:          0  itHIT:          0  itMISS:          0  dtACCESS:          0  dtHIT:          0  dtMISS:          0
cpu0_L2C RFO          ACCESS:     167540  HIT:      17710  MISS:     149830  iACCESS:          0  iHIT:          0  iMISS:          0  dACCESS:     167540  dHIT:      17710  dMISS:     149830  itACCESS:          0  itHIT:          0  itMISS:          0  dtACCESS:          0  dtHIT:          0  dtMISS:          0
cpu0_L2C PREFETCH     ACCESS:    4441332  HIT:    1134121  MISS:    3307211  iACCESS:    2297655  iHIT:     695123  iMISS:    1602532  dACCESS:    2143677  dHIT:     438998  dMISS:    1704679  itACCESS:          0  itHIT:          0  itMISS:          0  dtACCESS:          0  dtHIT:          0  dtMISS:          0
cpu0_L2C WRITE        ACCESS:     244682  HIT:      92220  MISS:     152462  iACCESS:          0  iHIT:          0  iMISS:          0  dACCESS:     244682  dHIT:      92220  dMISS:     152462  itACCESS:          0  itHIT:          0  itMISS:          0  dtACCESS:          0  dtHIT:          0  dtMISS:          0
cpu0_L2C TRANSLATION  ACCESS:     227316  HIT:     123994  MISS:     103322  iACCESS:          0  iHIT:          0  iMISS:          0  dACCESS:          0  dHIT:          0  dMISS:          0  itACCESS:      22632  itHIT:       8552  itMISS:      14080  dtACCESS:     204684  dtHIT:     115442  dtMISS:      89242
cpu0_L2C PREFETCH  REQUESTED:    1345610  ISSUED:    1345610  CROSSED:          0  USEFUL:     362319  USELESS:     366473
cpu0_L2C AVERAGE iMISS LATENCY: 19.2401 cycles
cpu0_L2C AVERAGE dMISS LATENCY: 35.3757 cycles
cpu0_L2C AVERAGE itMISS LATENCY: 0.34863 cycles
cpu0_L2C AVERAGE dtMISS LATENCY: 2.29101 cycles
cpu0_L2C PAGE CROSSINGS (TLB HIT):         0 
cpu0_L2C PAGE CROSSINGS (TLB MISS):         0 
cpu0_L2C AVERAGE MISS LATENCY: 57.2554 cycles
LLC TOTAL       ACCESS:    5891824  HIT:    4423786  MISS:    1468038  iACCESS:    2060207  iHIT:    1546554  iMISS:     513653  dACCESS:    3728295  dHIT:    2850156  dMISS:     878139  itACCESS:      14080  itHIT:       3659  itMISS:      10421  dtACCESS:      89242  dtHIT:      23417  dtMISS:      65825
LLC LOAD         ACCESS:    2303345  HIT:    1976103  MISS:     327242  iACCESS:     524211  iHIT:     418288  iMISS:     105923  dACCESS:    1779134  dHIT:    1557815  dMISS:     221319  itACCESS:          0  itHIT:          0  itMISS:          0  dtACCESS:          0  dtHIT:          0  dtMISS:          0
LLC RFO          ACCESS:     149829  HIT:      95525  MISS:      54304  iACCESS:          0  iHIT:          0  iMISS:          0  dACCESS:     149829  dHIT:      95525  dMISS:      54304  itACCESS:          0  itHIT:          0  itMISS:          0  dtACCESS:          0  dtHIT:          0  dtMISS:          0
LLC PREFETCH     ACCESS:    3131559  HIT:    2122755  MISS:    1008804  iACCESS:    1535996  iHIT:    1128266  iMISS:     407730  dACCESS:    1595563  dHIT:     994489  dMISS:     601074  itACCESS:          0  itHIT:          0  itMISS:          0  dtACCESS:          0  dtHIT:          0  dtMISS:          0
LLC WRITE        ACCESS:     203769  HIT:     202327  MISS:       1442  iACCESS:          0  iHIT:          0  iMISS:          0  dACCESS:     203769  dHIT:     202327  dMISS:       1442  itACCESS:          0  itHIT:          0  itMISS:          0  dtACCESS:          0  dtHIT:          0  dtMISS:          0
LLC TRANSLATION  ACCESS:     103322  HIT:      27076  MISS:      76246  iACCESS:          0  iHIT:          0  iMISS:          0  dACCESS:          0  dHIT:          0  dMISS:          0  itACCESS:      14080  itHIT:       3659  itMISS:      10421  dtACCESS:      89242  dtHIT:      23417  dtMISS:      65825
LLC PREFETCH  REQUESTED:          0  ISSUED:          0  CROSSED:          0  USEFUL:          0  USELESS:          0
LLC AVERAGE iMISS LATENCY: 51.7547 cycles
LLC AVERAGE dMISS LATENCY: 99.4269 cycles
LLC AVERAGE itMISS LATENCY: 1.24168 cycles
LLC AVERAGE dtMISS LATENCY: 8.20438 cycles
LLC PAGE CROSSINGS (TLB HIT):         0 
LLC PAGE CROSSINGS (TLB MISS):         0 
LLC AVERAGE MISS LATENCY: 160.628 cycles

PageTableWalker TOTAL       ACCESS:     101027  
PageTableWalker AVERAGE LATENCY: 4.20896 cycles
PageTableWalker TOTAL LATENCY: 425218 cycles

DRAM Statistics
Channel 0
 RQ ROW_BUFFER_HIT:     415998
  ROW_BUFFER_MISS:    1039683
 AVG DBUS CONGESTED CYCLE:    3.64169
 WQ ROW_BUFFER_HIT:      33360
  ROW_BUFFER_MISS:      32138  FULL:          0

