last_page:0x200000000000000
VMEM_RES_CAP:0x100000
PAGE_SIZE:4096
LOG2_PAGE_SIZE:12
LOG2_PAGE_TABLE_SIZE:9
page_table_levels:5
WARNING: physical memory size is smaller than virtual memory size
FDiP enabled with aggresivity 16

*** ChampSim Multicore Out-of-Order Simulator ***

Warmup Instructions: 50000000
Simulation Instructions: 100000000
Number of CPUs: 1
Small page size: 4096
Large page size: 2097152

CPU 0 Bimodal branch predictor
Basic BTB sets: 1024 ways: 8 indirect buffer size: 4096 RAS size: 64
Instruction page size distrubution: 0
Loading instruction page size distribution from /home/bsc/bsc018186/scratch/itp_asplos25_AE/dump/srv526_ap.pdst
Data page size distrubution: 0
Loading data page size distribution from /home/bsc/bsc018186/scratch/itp_asplos25_AE/dump/srv526_ap.pdst
cpu0_L2C IP-based stride prefetcher
cpu0_L1D next line prefetcher
cpu0_STLB using iTP with max lru@8
cpu0_STLB using iTP with instr@0 and data@2
Init sat counter with 3 bits (max:50).
cpu0_L1I next line prefetcher
Off-chip DRAM Size: 4 GiB Channels: 1 Width: 64-bit Data Rate: 3200 MT/s
Heartbeat CPU 0 instructions: 10000003 cycles: 2500388 heartbeat IPC: 3.99939 cumulative IPC: 3.99939 (Simulation time: 0 hr 0 min 38 sec) 
Heartbeat CPU 0 instructions: 20000001 cycles: 5441453 heartbeat IPC: 3.40013 cumulative IPC: 3.67549 (Simulation time: 0 hr 1 min 19 sec) 
Heartbeat CPU 0 instructions: 30000002 cycles: 8087392 heartbeat IPC: 3.77938 cumulative IPC: 3.70948 (Simulation time: 0 hr 1 min 59 sec) 
Heartbeat CPU 0 instructions: 40000001 cycles: 10587705 heartbeat IPC: 3.9995 cumulative IPC: 3.77797 (Simulation time: 0 hr 2 min 40 sec) 
Heartbeat CPU 0 instructions: 50000002 cycles: 13087855 heartbeat IPC: 3.99977 cumulative IPC: 3.82034 (Simulation time: 0 hr 3 min 21 sec) 
Warmup finished CPU 0 instructions: 50000002 cycles: 13087856 cumulative IPC: 3.82034 (Simulation time: 0 hr 3 min 21 sec) 

Warmup complete CPU 0 instructions: 50000002 cycles: 13087856 (Simulation time: 0 hr 3 min 21 sec) 

Heartbeat CPU 0 instructions: 60000003 cycles: 30034896 heartbeat IPC: 0.590074 cumulative IPC: 0.590074 (Simulation time: 0 hr 4 min 27 sec) 
Heartbeat CPU 0 instructions: 70000001 cycles: 47865549 heartbeat IPC: 0.560832 cumulative IPC: 0.575082 (Simulation time: 0 hr 5 min 35 sec) 
Heartbeat CPU 0 instructions: 80000001 cycles: 66329685 heartbeat IPC: 0.541591 cumulative IPC: 0.563467 (Simulation time: 0 hr 6 min 43 sec) 
Heartbeat CPU 0 instructions: 90000001 cycles: 83854447 heartbeat IPC: 0.570622 cumulative IPC: 0.565239 (Simulation time: 0 hr 7 min 50 sec) 
Heartbeat CPU 0 instructions: 100000000 cycles: 102062125 heartbeat IPC: 0.549219 cumulative IPC: 0.561961 (Simulation time: 0 hr 9 min 0 sec) 
*** Reached end of trace: /gpfs/projects/bsc18/MN4/bsc18/romol/ChampSim/traces/qualcomm_srv/srv526_ap.champsimtrace.xz
Heartbeat CPU 0 instructions: 110000004 cycles: 119721645 heartbeat IPC: 0.566268 cumulative IPC: 0.562674 (Simulation time: 0 hr 10 min 9 sec) 
Heartbeat CPU 0 instructions: 120000000 cycles: 131468443 heartbeat IPC: 0.851296 cumulative IPC: 0.591314 (Simulation time: 0 hr 11 min 9 sec) 
Heartbeat CPU 0 instructions: 130000002 cycles: 142188795 heartbeat IPC: 0.932806 cumulative IPC: 0.619671 (Simulation time: 0 hr 12 min 7 sec) 
Heartbeat CPU 0 instructions: 140000003 cycles: 159632723 heartbeat IPC: 0.573266 cumulative IPC: 0.614147 (Simulation time: 0 hr 13 min 14 sec) 
Heartbeat CPU 0 instructions: 150000000 cycles: 177130356 heartbeat IPC: 0.571506 cumulative IPC: 0.609599 (Simulation time: 0 hr 14 min 21 sec) 
Simulation finished CPU 0 instructions: 100000000 cycles: 164042502 cumulative IPC: 0.609599 (Simulation time: 0 hr 14 min 21 sec) 

Simulation complete CPU 0 instructions: 100000000 cycles: 164042502 (Simulation time: 0 hr 14 min 21 sec) 


ChampSim completed all CPUs

Saving instructions large page distribution to /home/bsc/bsc018186/scratch/itp_asplos25_AE/dump/srv526_ap.pdst...
Saving data large page distribution to /home/bsc/bsc018186/scratch/itp_asplos25_AE/dump/srv526_ap.pdst...
=== Simulation ===
CPU 0 runs /gpfs/projects/bsc18/MN4/bsc18/romol/ChampSim/traces/qualcomm_srv/srv526_ap.champsimtrace.xz

Region of Interest Statistics

CPU 0 cumulative IPC: 0.609599 instructions: 100000000 cycles: 164042502
CPU 0 Branch Prediction Accuracy: 84.5898% MPKI: 29.6827 Average ROB Occupancy at Mispredict: 12.8144
Branch type MPKI
BRANCH_DIRECT_JUMP: 1.08155
BRANCH_INDIRECT: 15.2585
BRANCH_CONDITIONAL: 9.34652
BRANCH_DIRECT_CALL: 1.96348
BRANCH_INDIRECT_CALL: 0.633771
BRANCH_RETURN: 1.39896

Instructions large pages: 0
Instructions small pages: 1113
Large page distribution for instructions: 0%

Data large pages: 0
Data small pages: 9531
Large page distribution for data: 0%

cpu0_L1I TOTAL       ACCESS:   34184517  HIT:   27047414  MISS:    7137103  iACCESS:   34184517  iHIT:   27047414  iMISS:    7137103  dACCESS:          0  dHIT:          0  dMISS:          0  itACCESS:          0  itHIT:          0  itMISS:          0  dtACCESS:          0  dtHIT:          0  dtMISS:          0
cpu0_L1I LOAD         ACCESS:    9129594  HIT:    7126360  MISS:    2003234  iACCESS:    9129594  iHIT:    7126360  iMISS:    2003234  dACCESS:          0  dHIT:          0  dMISS:          0  itACCESS:          0  itHIT:          0  itMISS:          0  dtACCESS:          0  dtHIT:          0  dtMISS:          0
cpu0_L1I RFO          ACCESS:          0  HIT:          0  MISS:          0  iACCESS:          0  iHIT:          0  iMISS:          0  dACCESS:          0  dHIT:          0  dMISS:          0  itACCESS:          0  itHIT:          0  itMISS:          0  dtACCESS:          0  dtHIT:          0  dtMISS:          0
cpu0_L1I PREFETCH     ACCESS:   25054923  HIT:   19921054  MISS:    5133869  iACCESS:   25054923  iHIT:   19921054  iMISS:    5133869  dACCESS:          0  dHIT:          0  dMISS:          0  itACCESS:          0  itHIT:          0  itMISS:          0  dtACCESS:          0  dtHIT:          0  dtMISS:          0
cpu0_L1I WRITE        ACCESS:          0  HIT:          0  MISS:          0  iACCESS:          0  iHIT:          0  iMISS:          0  dACCESS:          0  dHIT:          0  dMISS:          0  itACCESS:          0  itHIT:          0  itMISS:          0  dtACCESS:          0  dtHIT:          0  dtMISS:          0
cpu0_L1I TRANSLATION  ACCESS:          0  HIT:          0  MISS:          0  iACCESS:          0  iHIT:          0  iMISS:          0  dACCESS:          0  dHIT:          0  dMISS:          0  itACCESS:          0  itHIT:          0  itMISS:          0  dtACCESS:          0  dtHIT:          0  dtMISS:          0
cpu0_L1I PREFETCH  REQUESTED:   27258462  ISSUED:   27258462  CROSSED:          0  USEFUL:    1743834  USELESS:     595371
cpu0_L1I AVERAGE iMISS LATENCY: 15.7638 cycles
cpu0_L1I AVERAGE dMISS LATENCY: 0 cycles
cpu0_L1I AVERAGE itMISS LATENCY: 0 cycles
cpu0_L1I AVERAGE dtMISS LATENCY: 0 cycles
cpu0_L1I PAGE CROSSINGS (TLB HIT):         0 
cpu0_L1I PAGE CROSSINGS (TLB MISS):         0 
cpu0_L1I AVERAGE MISS LATENCY: 15.7638 cycles
cpu0_ITLB TOTAL       ACCESS:   28801426  HIT:   27000583  MISS:    1800843  iACCESS:   28801426  iHIT:   27000583  iMISS:    1800843  dACCESS:          0  dHIT:          0  dMISS:          0  itACCESS:          0  itHIT:          0  itMISS:          0  dtACCESS:          0  dtHIT:          0  dtMISS:          0
cpu0_ITLB LOAD         ACCESS:   28801426  HIT:   27000583  MISS:    1800843  iACCESS:   28801426  iHIT:   27000583  iMISS:    1800843  dACCESS:          0  dHIT:          0  dMISS:          0  itACCESS:          0  itHIT:          0  itMISS:          0  dtACCESS:          0  dtHIT:          0  dtMISS:          0
cpu0_ITLB RFO          ACCESS:          0  HIT:          0  MISS:          0  iACCESS:          0  iHIT:          0  iMISS:          0  dACCESS:          0  dHIT:          0  dMISS:          0  itACCESS:          0  itHIT:          0  itMISS:          0  dtACCESS:          0  dtHIT:          0  dtMISS:          0
cpu0_ITLB PREFETCH     ACCESS:          0  HIT:          0  MISS:          0  iACCESS:          0  iHIT:          0  iMISS:          0  dACCESS:          0  dHIT:          0  dMISS:          0  itACCESS:          0  itHIT:          0  itMISS:          0  dtACCESS:          0  dtHIT:          0  dtMISS:          0
cpu0_ITLB WRITE        ACCESS:          0  HIT:          0  MISS:          0  iACCESS:          0  iHIT:          0  iMISS:          0  dACCESS:          0  dHIT:          0  dMISS:          0  itACCESS:          0  itHIT:          0  itMISS:          0  dtACCESS:          0  dtHIT:          0  dtMISS:          0
cpu0_ITLB TRANSLATION  ACCESS:          0  HIT:          0  MISS:          0  iACCESS:          0  iHIT:          0  iMISS:          0  dACCESS:          0  dHIT:          0  dMISS:          0  itACCESS:          0  itHIT:          0  itMISS:          0  dtACCESS:          0  dtHIT:          0  dtMISS:          0
cpu0_ITLB PREFETCH  REQUESTED:          0  ISSUED:          0  CROSSED:          0  USEFUL:     299264  USELESS:      63910
cpu0_ITLB AVERAGE iMISS LATENCY: 2.73085 cycles
cpu0_ITLB AVERAGE dMISS LATENCY: 0 cycles
cpu0_ITLB AVERAGE itMISS LATENCY: 0 cycles
cpu0_ITLB AVERAGE dtMISS LATENCY: 0 cycles
cpu0_ITLB PAGE CROSSINGS (TLB HIT):         0 
cpu0_ITLB PAGE CROSSINGS (TLB MISS):         0 
cpu0_ITLB AVERAGE MISS LATENCY: 2.73085 cycles
cpu0_DTLB TOTAL       ACCESS:   29654316  HIT:   25494541  MISS:    4159775  iACCESS:          0  iHIT:          0  iMISS:          0  dACCESS:   29654316  dHIT:   25494541  dMISS:    4159775  itACCESS:          0  itHIT:          0  itMISS:          0  dtACCESS:          0  dtHIT:          0  dtMISS:          0
cpu0_DTLB LOAD         ACCESS:   29654316  HIT:   25494541  MISS:    4159775  iACCESS:          0  iHIT:          0  iMISS:          0  dACCESS:   29654316  dHIT:   25494541  dMISS:    4159775  itACCESS:          0  itHIT:          0  itMISS:          0  dtACCESS:          0  dtHIT:          0  dtMISS:          0
cpu0_DTLB RFO          ACCESS:          0  HIT:          0  MISS:          0  iACCESS:          0  iHIT:          0  iMISS:          0  dACCESS:          0  dHIT:          0  dMISS:          0  itACCESS:          0  itHIT:          0  itMISS:          0  dtACCESS:          0  dtHIT:          0  dtMISS:          0
cpu0_DTLB PREFETCH     ACCESS:          0  HIT:          0  MISS:          0  iACCESS:          0  iHIT:          0  iMISS:          0  dACCESS:          0  dHIT:          0  dMISS:          0  itACCESS:          0  itHIT:          0  itMISS:          0  dtACCESS:          0  dtHIT:          0  dtMISS:          0
cpu0_DTLB WRITE        ACCESS:          0  HIT:          0  MISS:          0  iACCESS:          0  iHIT:          0  iMISS:          0  dACCESS:          0  dHIT:          0  dMISS:          0  itACCESS:          0  itHIT:          0  itMISS:          0  dtACCESS:          0  dtHIT:          0  dtMISS:          0
cpu0_DTLB TRANSLATION  ACCESS:          0  HIT:          0  MISS:          0  iACCESS:          0  iHIT:          0  iMISS:          0  dACCESS:          0  dHIT:          0  dMISS:          0  itACCESS:          0  itHIT:          0  itMISS:          0  dtACCESS:          0  dtHIT:          0  dtMISS:          0
cpu0_DTLB PREFETCH  REQUESTED:          0  ISSUED:          0  CROSSED:          0  USEFUL:          0  USELESS:          0
cpu0_DTLB AVERAGE iMISS LATENCY: 0 cycles
cpu0_DTLB AVERAGE dMISS LATENCY: 11.2853 cycles
cpu0_DTLB AVERAGE itMISS LATENCY: 0 cycles
cpu0_DTLB AVERAGE dtMISS LATENCY: 0 cycles
cpu0_DTLB PAGE CROSSINGS (TLB HIT):         0 
cpu0_DTLB PAGE CROSSINGS (TLB MISS):         0 
cpu0_DTLB AVERAGE MISS LATENCY: 11.2853 cycles
cpu0_STLB TOTAL       ACCESS:    2570877  HIT:    2405224  MISS:     165653  iACCESS:     363178  iHIT:     350169  iMISS:      13009  dACCESS:    2207699  dHIT:    2055055  dMISS:     152644  itACCESS:          0  itHIT:          0  itMISS:          0  dtACCESS:          0  dtHIT:          0  dtMISS:          0
cpu0_STLB LOAD         ACCESS:    2570877  HIT:    2405224  MISS:     165653  iACCESS:     363178  iHIT:     350169  iMISS:      13009  dACCESS:    2207699  dHIT:    2055055  dMISS:     152644  itACCESS:          0  itHIT:          0  itMISS:          0  dtACCESS:          0  dtHIT:          0  dtMISS:          0
cpu0_STLB RFO          ACCESS:          0  HIT:          0  MISS:          0  iACCESS:          0  iHIT:          0  iMISS:          0  dACCESS:          0  dHIT:          0  dMISS:          0  itACCESS:          0  itHIT:          0  itMISS:          0  dtACCESS:          0  dtHIT:          0  dtMISS:          0
cpu0_STLB PREFETCH     ACCESS:          0  HIT:          0  MISS:          0  iACCESS:          0  iHIT:          0  iMISS:          0  dACCESS:          0  dHIT:          0  dMISS:          0  itACCESS:          0  itHIT:          0  itMISS:          0  dtACCESS:          0  dtHIT:          0  dtMISS:          0
cpu0_STLB WRITE        ACCESS:          0  HIT:          0  MISS:          0  iACCESS:          0  iHIT:          0  iMISS:          0  dACCESS:          0  dHIT:          0  dMISS:          0  itACCESS:          0  itHIT:          0  itMISS:          0  dtACCESS:          0  dtHIT:          0  dtMISS:          0
cpu0_STLB TRANSLATION  ACCESS:          0  HIT:          0  MISS:          0  iACCESS:          0  iHIT:          0  iMISS:          0  dACCESS:          0  dHIT:          0  dMISS:          0  itACCESS:          0  itHIT:          0  itMISS:          0  dtACCESS:          0  dtHIT:          0  dtMISS:          0
cpu0_STLB PREFETCH  REQUESTED:          0  ISSUED:          0  CROSSED:          0  USEFUL:          0  USELESS:          0
cpu0_STLB AVERAGE iMISS LATENCY: 12.6194 cycles
cpu0_STLB AVERAGE dMISS LATENCY: 175.65 cycles
cpu0_STLB AVERAGE itMISS LATENCY: 0 cycles
cpu0_STLB AVERAGE dtMISS LATENCY: 0 cycles
cpu0_STLB PAGE CROSSINGS (TLB HIT):         0 
cpu0_STLB PAGE CROSSINGS (TLB MISS):         0 
cpu0_STLB AVERAGE MISS LATENCY: 188.269 cycles
cpu0_L1D TOTAL       ACCESS:   44447965  HIT:   38818466  MISS:    5629499  iACCESS:          0  iHIT:          0  iMISS:          0  dACCESS:   44208452  dHIT:   38802789  dMISS:    5405663  itACCESS:      16457  itHIT:       1090  itMISS:      15367  dtACCESS:     223056  dtHIT:      14587  dtMISS:     208469
cpu0_L1D LOAD         ACCESS:   21220072  HIT:   18025267  MISS:    3194805  iACCESS:          0  iHIT:          0  iMISS:          0  dACCESS:   21220072  dHIT:   18025267  dMISS:    3194805  itACCESS:          0  itHIT:          0  itMISS:          0  dtACCESS:          0  dtHIT:          0  dtMISS:          0
cpu0_L1D RFO          ACCESS:          0  HIT:          0  MISS:          0  iACCESS:          0  iHIT:          0  iMISS:          0  dACCESS:          0  dHIT:          0  dMISS:          0  itACCESS:          0  itHIT:          0  itMISS:          0  dtACCESS:          0  dtHIT:          0  dtMISS:          0
cpu0_L1D PREFETCH     ACCESS:   13038025  HIT:   11296995  MISS:    1741030  iACCESS:          0  iHIT:          0  iMISS:          0  dACCESS:   13038025  dHIT:   11296995  dMISS:    1741030  itACCESS:          0  itHIT:          0  itMISS:          0  dtACCESS:          0  dtHIT:          0  dtMISS:          0
cpu0_L1D WRITE        ACCESS:    9950355  HIT:    9480527  MISS:     469828  iACCESS:          0  iHIT:          0  iMISS:          0  dACCESS:    9950355  dHIT:    9480527  dMISS:     469828  itACCESS:          0  itHIT:          0  itMISS:          0  dtACCESS:          0  dtHIT:          0  dtMISS:          0
cpu0_L1D TRANSLATION  ACCESS:     239513  HIT:      15677  MISS:     223836  iACCESS:          0  iHIT:          0  iMISS:          0  dACCESS:          0  dHIT:          0  dMISS:          0  itACCESS:      16457  itHIT:       1090  itMISS:      15367  dtACCESS:     223056  dtHIT:      14587  dtMISS:     208469
cpu0_L1D PREFETCH  REQUESTED:   21220072  ISSUED:   17559061  CROSSED:          0  USEFUL:     267216  USELESS:     896309
cpu0_L1D AVERAGE iMISS LATENCY: 0 cycles
cpu0_L1D AVERAGE dMISS LATENCY: 26.891 cycles
cpu0_L1D AVERAGE itMISS LATENCY: 0.346007 cycles
cpu0_L1D AVERAGE dtMISS LATENCY: 4.63055 cycles
cpu0_L1D PAGE CROSSINGS (TLB HIT):         0 
cpu0_L1D PAGE CROSSINGS (TLB MISS):         0 
cpu0_L1D AVERAGE MISS LATENCY: 31.8676 cycles
cpu0_L2C TOTAL       ACCESS:    8264716  HIT:    5346067  MISS:    2918649  iACCESS:    3030604  iHIT:    1908086  iMISS:    1122518  dACCESS:    5018162  dHIT:    3402691  dMISS:    1615471  itACCESS:      15177  itHIT:       2737  itMISS:      12440  dtACCESS:     200773  dtHIT:      32553  dtMISS:     168220
cpu0_L2C LOAD         ACCESS:    3141374  HIT:    2452276  MISS:     689098  iACCESS:     721041  iHIT:     477017  iMISS:     244024  dACCESS:    2420333  dHIT:    1975259  dMISS:     445074  itACCESS:          0  itHIT:          0  itMISS:          0  dtACCESS:          0  dtHIT:          0  dtMISS:          0
cpu0_L2C RFO          ACCESS:     178726  HIT:      84321  MISS:      94405  iACCESS:          0  iHIT:          0  iMISS:          0  dACCESS:     178726  dHIT:      84321  dMISS:      94405  itACCESS:          0  itHIT:          0  itMISS:          0  dtACCESS:          0  dtHIT:          0  dtMISS:          0
cpu0_L2C PREFETCH     ACCESS:    4475463  HIT:    2521828  MISS:    1953635  iACCESS:    2309563  iHIT:    1431069  iMISS:     878494  dACCESS:    2165900  dHIT:    1090759  dMISS:    1075141  itACCESS:          0  itHIT:          0  itMISS:          0  dtACCESS:          0  dtHIT:          0  dtMISS:          0
cpu0_L2C WRITE        ACCESS:     253203  HIT:     252352  MISS:        851  iACCESS:          0  iHIT:          0  iMISS:          0  dACCESS:     253203  dHIT:     252352  dMISS:        851  itACCESS:          0  itHIT:          0  itMISS:          0  dtACCESS:          0  dtHIT:          0  dtMISS:          0
cpu0_L2C TRANSLATION  ACCESS:     215950  HIT:      35290  MISS:     180660  iACCESS:          0  iHIT:          0  iMISS:          0  dACCESS:          0  dHIT:          0  dMISS:          0  itACCESS:      15177  itHIT:       2737  itMISS:      12440  dtACCESS:     200773  dtHIT:      32553  dtMISS:     168220
cpu0_L2C PREFETCH  REQUESTED:    1213674  ISSUED:    1213666  CROSSED:          0  USEFUL:     282312  USELESS:     226795
cpu0_L2C AVERAGE iMISS LATENCY: 29.4397 cycles
cpu0_L2C AVERAGE dMISS LATENCY: 52.6348 cycles
cpu0_L2C AVERAGE itMISS LATENCY: 0.616215 cycles
cpu0_L2C AVERAGE dtMISS LATENCY: 8.25004 cycles
cpu0_L2C PAGE CROSSINGS (TLB HIT):         0 
cpu0_L2C PAGE CROSSINGS (TLB MISS):         0 
cpu0_L2C AVERAGE MISS LATENCY: 90.9407 cycles
LLC TOTAL       ACCESS:    2932098  HIT:    1613197  MISS:    1318901  iACCESS:    1068803  iHIT:     630144  iMISS:     438659  dACCESS:    1682635  dHIT:     925947  dMISS:     756688  itACCESS:      12440  itHIT:       3520  itMISS:       8920  dtACCESS:     168220  dtHIT:      53586  dtMISS:     114634
LLC LOAD         ACCESS:     686702  HIT:     390452  MISS:     296250  iACCESS:     243130  iHIT:     147822  iMISS:      95308  dACCESS:     443572  dHIT:     242630  dMISS:     200942  itACCESS:          0  itHIT:          0  itMISS:          0  dtACCESS:          0  dtHIT:          0  dtMISS:          0
LLC RFO          ACCESS:      94398  HIT:      42008  MISS:      52390  iACCESS:          0  iHIT:          0  iMISS:          0  dACCESS:      94398  dHIT:      42008  dMISS:      52390  itACCESS:          0  itHIT:          0  itMISS:          0  dtACCESS:          0  dtHIT:          0  dtMISS:          0
LLC PREFETCH     ACCESS:    1843947  HIT:    1003631  MISS:     840316  iACCESS:     825673  iHIT:     482322  iMISS:     343351  dACCESS:    1018274  dHIT:     521309  dMISS:     496965  itACCESS:          0  itHIT:          0  itMISS:          0  dtACCESS:          0  dtHIT:          0  dtMISS:          0
LLC WRITE        ACCESS:     126391  HIT:     120000  MISS:       6391  iACCESS:          0  iHIT:          0  iMISS:          0  dACCESS:     126391  dHIT:     120000  dMISS:       6391  itACCESS:          0  itHIT:          0  itMISS:          0  dtACCESS:          0  dtHIT:          0  dtMISS:          0
LLC TRANSLATION  ACCESS:     180660  HIT:      57106  MISS:     123554  iACCESS:          0  iHIT:          0  iMISS:          0  dACCESS:          0  dHIT:          0  dMISS:          0  itACCESS:      12440  itHIT:       3520  itMISS:       8920  dtACCESS:     168220  dtHIT:      53586  dtMISS:     114634
LLC PREFETCH  REQUESTED:          0  ISSUED:          0  CROSSED:          0  USEFUL:          0  USELESS:          0
LLC AVERAGE iMISS LATENCY: 49.3718 cycles
LLC AVERAGE dMISS LATENCY: 93.8157 cycles
LLC AVERAGE itMISS LATENCY: 1.17834 cycles
LLC AVERAGE dtMISS LATENCY: 15.7553 cycles
LLC PAGE CROSSINGS (TLB HIT):         0 
LLC PAGE CROSSINGS (TLB MISS):         0 
LLC AVERAGE MISS LATENCY: 160.121 cycles

PageTableWalker TOTAL       ACCESS:      71512  
PageTableWalker AVERAGE LATENCY: 5.852 cycles
PageTableWalker TOTAL LATENCY: 418488 cycles

DRAM Statistics
Channel 0
 RQ ROW_BUFFER_HIT:     358587
  ROW_BUFFER_MISS:     952504
 AVG DBUS CONGESTED CYCLE:    3.62098
 WQ ROW_BUFFER_HIT:      27071
  ROW_BUFFER_MISS:      20494  FULL:          0

