last_page:0x200000000000000
VMEM_RES_CAP:0x100000
PAGE_SIZE:4096
LOG2_PAGE_SIZE:12
LOG2_PAGE_TABLE_SIZE:9
page_table_levels:5
WARNING: physical memory size is smaller than virtual memory size
FDiP enabled with aggresivity 16

*** ChampSim Multicore Out-of-Order Simulator ***

Warmup Instructions: 50000000
Simulation Instructions: 100000000
Number of CPUs: 1
Small page size: 4096
Large page size: 2097152

CPU 0 Bimodal branch predictor
Basic BTB sets: 1024 ways: 8 indirect buffer size: 4096 RAS size: 64
Instruction page size distrubution: 0
Loading instruction page size distribution from /home/bsc/bsc018186/scratch/itp_asplos25_AE/dump/srv504_ap.pdst
Data page size distrubution: 0
Loading data page size distribution from /home/bsc/bsc018186/scratch/itp_asplos25_AE/dump/srv504_ap.pdst
cpu0_L2C IP-based stride prefetcher
cpu0_L2C is using PTP replacement policy:
	TLB_STRESS_THRESHOLD:0
	PTE_EVICTION_RATIO:0
cpu0_L1D next line prefetcher
CHiRPing...
cpu0_L1I next line prefetcher
Off-chip DRAM Size: 4 GiB Channels: 1 Width: 64-bit Data Rate: 3200 MT/s
Heartbeat CPU 0 instructions: 10000001 cycles: 2500466 heartbeat IPC: 3.99926 cumulative IPC: 3.99926 (Simulation time: 0 hr 0 min 39 sec) 
Heartbeat CPU 0 instructions: 20000003 cycles: 5002208 heartbeat IPC: 3.99722 cumulative IPC: 3.99824 (Simulation time: 0 hr 1 min 19 sec) 
Heartbeat CPU 0 instructions: 30000002 cycles: 7502392 heartbeat IPC: 3.99971 cumulative IPC: 3.99873 (Simulation time: 0 hr 2 min 0 sec) 
Heartbeat CPU 0 instructions: 40000002 cycles: 10002415 heartbeat IPC: 3.99997 cumulative IPC: 3.99904 (Simulation time: 0 hr 2 min 42 sec) 
Heartbeat CPU 0 instructions: 50000001 cycles: 12502553 heartbeat IPC: 3.99978 cumulative IPC: 3.99919 (Simulation time: 0 hr 3 min 23 sec) 
Warmup finished CPU 0 instructions: 50000001 cycles: 12502554 cumulative IPC: 3.99919 (Simulation time: 0 hr 3 min 23 sec) 

Warmup complete CPU 0 instructions: 50000001 cycles: 12502554 (Simulation time: 0 hr 3 min 23 sec) 

Heartbeat CPU 0 instructions: 60000002 cycles: 30678921 heartbeat IPC: 0.550165 cumulative IPC: 0.550166 (Simulation time: 0 hr 4 min 32 sec) 
Heartbeat CPU 0 instructions: 70000000 cycles: 49298826 heartbeat IPC: 0.53706 cumulative IPC: 0.543534 (Simulation time: 0 hr 5 min 42 sec) 
Heartbeat CPU 0 instructions: 80000000 cycles: 67622385 heartbeat IPC: 0.545746 cumulative IPC: 0.544269 (Simulation time: 0 hr 6 min 52 sec) 
Heartbeat CPU 0 instructions: 90000003 cycles: 85914354 heartbeat IPC: 0.546689 cumulative IPC: 0.544872 (Simulation time: 0 hr 8 min 1 sec) 
Heartbeat CPU 0 instructions: 100000000 cycles: 104739235 heartbeat IPC: 0.531212 cumulative IPC: 0.542084 (Simulation time: 0 hr 9 min 12 sec) 
*** Reached end of trace: /gpfs/projects/bsc18/MN4/bsc18/romol/ChampSim/traces/qualcomm_srv/srv504_ap.champsimtrace.xz
Heartbeat CPU 0 instructions: 110000004 cycles: 123529036 heartbeat IPC: 0.532204 cumulative IPC: 0.540412 (Simulation time: 0 hr 10 min 22 sec) 
Heartbeat CPU 0 instructions: 120000001 cycles: 144134821 heartbeat IPC: 0.485301 cumulative IPC: 0.531785 (Simulation time: 0 hr 11 min 34 sec) 
Heartbeat CPU 0 instructions: 130000000 cycles: 163183894 heartbeat IPC: 0.52496 cumulative IPC: 0.530922 (Simulation time: 0 hr 12 min 44 sec) 
Heartbeat CPU 0 instructions: 140000002 cycles: 183939393 heartbeat IPC: 0.481801 cumulative IPC: 0.524975 (Simulation time: 0 hr 13 min 57 sec) 
Heartbeat CPU 0 instructions: 150000003 cycles: 203705745 heartbeat IPC: 0.505911 cumulative IPC: 0.523004 (Simulation time: 0 hr 15 min 8 sec) 
Simulation finished CPU 0 instructions: 100000002 cycles: 191203192 cumulative IPC: 0.523004 (Simulation time: 0 hr 15 min 8 sec) 

Simulation complete CPU 0 instructions: 100000002 cycles: 191203192 (Simulation time: 0 hr 15 min 8 sec) 


ChampSim completed all CPUs

Saving instructions large page distribution to /home/bsc/bsc018186/scratch/itp_asplos25_AE/dump/srv504_ap.pdst...
Saving data large page distribution to /home/bsc/bsc018186/scratch/itp_asplos25_AE/dump/srv504_ap.pdst...
=== Simulation ===
CPU 0 runs /gpfs/projects/bsc18/MN4/bsc18/romol/ChampSim/traces/qualcomm_srv/srv504_ap.champsimtrace.xz

Region of Interest Statistics

CPU 0 cumulative IPC: 0.523004 instructions: 100000002 cycles: 191203192
CPU 0 Branch Prediction Accuracy: 80.3433% MPKI: 35.5672 Average ROB Occupancy at Mispredict: 10.5088
Branch type MPKI
BRANCH_DIRECT_JUMP: 1.31302
BRANCH_INDIRECT: 17.8997
BRANCH_CONDITIONAL: 11.5116
BRANCH_DIRECT_CALL: 2.4806
BRANCH_INDIRECT_CALL: 0.67004
BRANCH_RETURN: 1.6923

Instructions large pages: 0
Instructions small pages: 1177
Large page distribution for instructions: 0%

Data large pages: 0
Data small pages: 5330
Large page distribution for data: 0%

cpu0_L1I TOTAL       ACCESS:   36330622  HIT:   28019102  MISS:    8311520  iACCESS:   36330622  iHIT:   28019102  iMISS:    8311520  dACCESS:          0  dHIT:          0  dMISS:          0  itACCESS:          0  itHIT:          0  itMISS:          0  dtACCESS:          0  dtHIT:          0  dtMISS:          0
cpu0_L1I LOAD         ACCESS:   10622752  HIT:    8336494  MISS:    2286258  iACCESS:   10622752  iHIT:    8336494  iMISS:    2286258  dACCESS:          0  dHIT:          0  dMISS:          0  itACCESS:          0  itHIT:          0  itMISS:          0  dtACCESS:          0  dtHIT:          0  dtMISS:          0
cpu0_L1I RFO          ACCESS:          0  HIT:          0  MISS:          0  iACCESS:          0  iHIT:          0  iMISS:          0  dACCESS:          0  dHIT:          0  dMISS:          0  itACCESS:          0  itHIT:          0  itMISS:          0  dtACCESS:          0  dtHIT:          0  dtMISS:          0
cpu0_L1I PREFETCH     ACCESS:   25707870  HIT:   19682608  MISS:    6025262  iACCESS:   25707870  iHIT:   19682608  iMISS:    6025262  dACCESS:          0  dHIT:          0  dMISS:          0  itACCESS:          0  itHIT:          0  itMISS:          0  dtACCESS:          0  dtHIT:          0  dtMISS:          0
cpu0_L1I WRITE        ACCESS:          0  HIT:          0  MISS:          0  iACCESS:          0  iHIT:          0  iMISS:          0  dACCESS:          0  dHIT:          0  dMISS:          0  itACCESS:          0  itHIT:          0  itMISS:          0  dtACCESS:          0  dtHIT:          0  dtMISS:          0
cpu0_L1I TRANSLATION  ACCESS:          0  HIT:          0  MISS:          0  iACCESS:          0  iHIT:          0  iMISS:          0  dACCESS:          0  dHIT:          0  dMISS:          0  itACCESS:          0  itHIT:          0  itMISS:          0  dtACCESS:          0  dtHIT:          0  dtMISS:          0
cpu0_L1I PREFETCH  REQUESTED:   28155804  ISSUED:   28155040  CROSSED:          0  USEFUL:    2017315  USELESS:     660326
cpu0_L1I AVERAGE iMISS LATENCY: 18.9699 cycles
cpu0_L1I AVERAGE dMISS LATENCY: 0 cycles
cpu0_L1I AVERAGE itMISS LATENCY: 0 cycles
cpu0_L1I AVERAGE dtMISS LATENCY: 0 cycles
cpu0_L1I PAGE CROSSINGS (TLB HIT):         0 
cpu0_L1I PAGE CROSSINGS (TLB MISS):         0 
cpu0_L1I AVERAGE MISS LATENCY: 18.9699 cycles
cpu0_ITLB TOTAL       ACCESS:   30361844  HIT:   28406603  MISS:    1955241  iACCESS:   30361844  iHIT:   28406603  iMISS:    1955241  dACCESS:          0  dHIT:          0  dMISS:          0  itACCESS:          0  itHIT:          0  itMISS:          0  dtACCESS:          0  dtHIT:          0  dtMISS:          0
cpu0_ITLB LOAD         ACCESS:   30361844  HIT:   28406603  MISS:    1955241  iACCESS:   30361844  iHIT:   28406603  iMISS:    1955241  dACCESS:          0  dHIT:          0  dMISS:          0  itACCESS:          0  itHIT:          0  itMISS:          0  dtACCESS:          0  dtHIT:          0  dtMISS:          0
cpu0_ITLB RFO          ACCESS:          0  HIT:          0  MISS:          0  iACCESS:          0  iHIT:          0  iMISS:          0  dACCESS:          0  dHIT:          0  dMISS:          0  itACCESS:          0  itHIT:          0  itMISS:          0  dtACCESS:          0  dtHIT:          0  dtMISS:          0
cpu0_ITLB PREFETCH     ACCESS:          0  HIT:          0  MISS:          0  iACCESS:          0  iHIT:          0  iMISS:          0  dACCESS:          0  dHIT:          0  dMISS:          0  itACCESS:          0  itHIT:          0  itMISS:          0  dtACCESS:          0  dtHIT:          0  dtMISS:          0
cpu0_ITLB WRITE        ACCESS:          0  HIT:          0  MISS:          0  iACCESS:          0  iHIT:          0  iMISS:          0  dACCESS:          0  dHIT:          0  dMISS:          0  itACCESS:          0  itHIT:          0  itMISS:          0  dtACCESS:          0  dtHIT:          0  dtMISS:          0
cpu0_ITLB TRANSLATION  ACCESS:          0  HIT:          0  MISS:          0  iACCESS:          0  iHIT:          0  iMISS:          0  dACCESS:          0  dHIT:          0  dMISS:          0  itACCESS:          0  itHIT:          0  itMISS:          0  dtACCESS:          0  dtHIT:          0  dtMISS:          0
cpu0_ITLB PREFETCH  REQUESTED:          0  ISSUED:          0  CROSSED:          0  USEFUL:     330187  USELESS:      65894
cpu0_ITLB AVERAGE iMISS LATENCY: 5.24404 cycles
cpu0_ITLB AVERAGE dMISS LATENCY: 0 cycles
cpu0_ITLB AVERAGE itMISS LATENCY: 0 cycles
cpu0_ITLB AVERAGE dtMISS LATENCY: 0 cycles
cpu0_ITLB PAGE CROSSINGS (TLB HIT):         0 
cpu0_ITLB PAGE CROSSINGS (TLB MISS):         0 
cpu0_ITLB AVERAGE MISS LATENCY: 5.24404 cycles
cpu0_DTLB TOTAL       ACCESS:   27991321  HIT:   25916603  MISS:    2074718  iACCESS:          0  iHIT:          0  iMISS:          0  dACCESS:   27991321  dHIT:   25916603  dMISS:    2074718  itACCESS:          0  itHIT:          0  itMISS:          0  dtACCESS:          0  dtHIT:          0  dtMISS:          0
cpu0_DTLB LOAD         ACCESS:   27991321  HIT:   25916603  MISS:    2074718  iACCESS:          0  iHIT:          0  iMISS:          0  dACCESS:   27991321  dHIT:   25916603  dMISS:    2074718  itACCESS:          0  itHIT:          0  itMISS:          0  dtACCESS:          0  dtHIT:          0  dtMISS:          0
cpu0_DTLB RFO          ACCESS:          0  HIT:          0  MISS:          0  iACCESS:          0  iHIT:          0  iMISS:          0  dACCESS:          0  dHIT:          0  dMISS:          0  itACCESS:          0  itHIT:          0  itMISS:          0  dtACCESS:          0  dtHIT:          0  dtMISS:          0
cpu0_DTLB PREFETCH     ACCESS:          0  HIT:          0  MISS:          0  iACCESS:          0  iHIT:          0  iMISS:          0  dACCESS:          0  dHIT:          0  dMISS:          0  itACCESS:          0  itHIT:          0  itMISS:          0  dtACCESS:          0  dtHIT:          0  dtMISS:          0
cpu0_DTLB WRITE        ACCESS:          0  HIT:          0  MISS:          0  iACCESS:          0  iHIT:          0  iMISS:          0  dACCESS:          0  dHIT:          0  dMISS:          0  itACCESS:          0  itHIT:          0  itMISS:          0  dtACCESS:          0  dtHIT:          0  dtMISS:          0
cpu0_DTLB TRANSLATION  ACCESS:          0  HIT:          0  MISS:          0  iACCESS:          0  iHIT:          0  iMISS:          0  dACCESS:          0  dHIT:          0  dMISS:          0  itACCESS:          0  itHIT:          0  itMISS:          0  dtACCESS:          0  dtHIT:          0  dtMISS:          0
cpu0_DTLB PREFETCH  REQUESTED:          0  ISSUED:          0  CROSSED:          0  USEFUL:          0  USELESS:          0
cpu0_DTLB AVERAGE iMISS LATENCY: 0 cycles
cpu0_DTLB AVERAGE dMISS LATENCY: 13.2256 cycles
cpu0_DTLB AVERAGE itMISS LATENCY: 0 cycles
cpu0_DTLB AVERAGE dtMISS LATENCY: 0 cycles
cpu0_DTLB PAGE CROSSINGS (TLB HIT):         0 
cpu0_DTLB PAGE CROSSINGS (TLB MISS):         0 
cpu0_DTLB AVERAGE MISS LATENCY: 13.2256 cycles
cpu0_STLB TOTAL       ACCESS:    1619745  HIT:    1397139  MISS:     222606  iACCESS:     396081  iHIT:     310693  iMISS:      85388  dACCESS:    1223664  dHIT:    1086446  dMISS:     137218  itACCESS:          0  itHIT:          0  itMISS:          0  dtACCESS:          0  dtHIT:          0  dtMISS:          0
cpu0_STLB LOAD         ACCESS:    1619745  HIT:    1397139  MISS:     222606  iACCESS:     396081  iHIT:     310693  iMISS:      85388  dACCESS:    1223664  dHIT:    1086446  dMISS:     137218  itACCESS:          0  itHIT:          0  itMISS:          0  dtACCESS:          0  dtHIT:          0  dtMISS:          0
cpu0_STLB RFO          ACCESS:          0  HIT:          0  MISS:          0  iACCESS:          0  iHIT:          0  iMISS:          0  dACCESS:          0  dHIT:          0  dMISS:          0  itACCESS:          0  itHIT:          0  itMISS:          0  dtACCESS:          0  dtHIT:          0  dtMISS:          0
cpu0_STLB PREFETCH     ACCESS:          0  HIT:          0  MISS:          0  iACCESS:          0  iHIT:          0  iMISS:          0  dACCESS:          0  dHIT:          0  dMISS:          0  itACCESS:          0  itHIT:          0  itMISS:          0  dtACCESS:          0  dtHIT:          0  dtMISS:          0
cpu0_STLB WRITE        ACCESS:          0  HIT:          0  MISS:          0  iACCESS:          0  iHIT:          0  iMISS:          0  dACCESS:          0  dHIT:          0  dMISS:          0  itACCESS:          0  itHIT:          0  itMISS:          0  dtACCESS:          0  dtHIT:          0  dtMISS:          0
cpu0_STLB TRANSLATION  ACCESS:          0  HIT:          0  MISS:          0  iACCESS:          0  iHIT:          0  iMISS:          0  dACCESS:          0  dHIT:          0  dMISS:          0  itACCESS:          0  itHIT:          0  itMISS:          0  dtACCESS:          0  dtHIT:          0  dtMISS:          0
cpu0_STLB PREFETCH  REQUESTED:          0  ISSUED:          0  CROSSED:          0  USEFUL:          0  USELESS:          0
cpu0_STLB AVERAGE iMISS LATENCY: 31.8925 cycles
cpu0_STLB AVERAGE dMISS LATENCY: 79.4274 cycles
cpu0_STLB AVERAGE itMISS LATENCY: 0 cycles
cpu0_STLB AVERAGE dtMISS LATENCY: 0 cycles
cpu0_STLB PAGE CROSSINGS (TLB HIT):         0 
cpu0_STLB PAGE CROSSINGS (TLB MISS):         0 
cpu0_STLB AVERAGE MISS LATENCY: 111.32 cycles
cpu0_L1D TOTAL       ACCESS:   43158285  HIT:   38556985  MISS:    4601300  iACCESS:          0  iHIT:          0  iMISS:          0  dACCESS:   42873954  dHIT:   38533641  dMISS:    4340313  itACCESS:      91160  itHIT:      12471  itMISS:      78689  dtACCESS:     193171  dtHIT:      10873  dtMISS:     182298
cpu0_L1D LOAD         ACCESS:   19573978  HIT:   17584219  MISS:    1989759  iACCESS:          0  iHIT:          0  iMISS:          0  dACCESS:   19573978  dHIT:   17584219  dMISS:    1989759  itACCESS:          0  itHIT:          0  itMISS:          0  dtACCESS:          0  dtHIT:          0  dtMISS:          0
cpu0_L1D RFO          ACCESS:          0  HIT:          0  MISS:          0  iACCESS:          0  iHIT:          0  iMISS:          0  dACCESS:          0  dHIT:          0  dMISS:          0  itACCESS:          0  itHIT:          0  itMISS:          0  dtACCESS:          0  dtHIT:          0  dtMISS:          0
cpu0_L1D PREFETCH     ACCESS:   13131055  HIT:   11248154  MISS:    1882901  iACCESS:          0  iHIT:          0  iMISS:          0  dACCESS:   13131055  dHIT:   11248154  dMISS:    1882901  itACCESS:          0  itHIT:          0  itMISS:          0  dtACCESS:          0  dtHIT:          0  dtMISS:          0
cpu0_L1D WRITE        ACCESS:   10168921  HIT:    9701268  MISS:     467653  iACCESS:          0  iHIT:          0  iMISS:          0  dACCESS:   10168921  dHIT:    9701268  dMISS:     467653  itACCESS:          0  itHIT:          0  itMISS:          0  dtACCESS:          0  dtHIT:          0  dtMISS:          0
cpu0_L1D TRANSLATION  ACCESS:     284331  HIT:      23344  MISS:     260987  iACCESS:          0  iHIT:          0  iMISS:          0  dACCESS:          0  dHIT:          0  dMISS:          0  itACCESS:      91160  itHIT:      12471  itMISS:      78689  dtACCESS:     193171  dtHIT:      10873  dtMISS:     182298
cpu0_L1D PREFETCH  REQUESTED:   19573978  ISSUED:   17468031  CROSSED:          0  USEFUL:     309311  USELESS:     706045
cpu0_L1D AVERAGE iMISS LATENCY: 0 cycles
cpu0_L1D AVERAGE dMISS LATENCY: 37.3178 cycles
cpu0_L1D AVERAGE itMISS LATENCY: 1.38144 cycles
cpu0_L1D AVERAGE dtMISS LATENCY: 3.4214 cycles
cpu0_L1D PAGE CROSSINGS (TLB HIT):         0 
cpu0_L1D PAGE CROSSINGS (TLB MISS):         0 
cpu0_L1D AVERAGE MISS LATENCY: 42.1207 cycles
cpu0_L2C TOTAL       ACCESS:    7347921  HIT:    2222646  MISS:    5125275  iACCESS:    3423387  iHIT:    1234900  iMISS:    2188487  dACCESS:    3672846  dHIT:     859719  dMISS:    2813127  itACCESS:      78689  itHIT:      40556  itMISS:      38133  dtACCESS:     172999  dtHIT:      87471  dtMISS:      85528
cpu0_L2C LOAD         ACCESS:    1739911  HIT:     436103  MISS:    1303808  iACCESS:     783084  iHIT:     256508  iMISS:     526576  dACCESS:     956827  dHIT:     179595  dMISS:     777232  itACCESS:          0  itHIT:          0  itMISS:          0  dtACCESS:          0  dtHIT:          0  dtMISS:          0
cpu0_L2C RFO          ACCESS:     163092  HIT:      29823  MISS:     133269  iACCESS:          0  iHIT:          0  iMISS:          0  dACCESS:     163092  dHIT:      29823  dMISS:     133269  itACCESS:          0  itHIT:          0  itMISS:          0  dtACCESS:          0  dtHIT:          0  dtMISS:          0
cpu0_L2C PREFETCH     ACCESS:    4914005  HIT:    1485208  MISS:    3428797  iACCESS:    2640303  iHIT:     978392  iMISS:    1661911  dACCESS:    2273702  dHIT:     506816  dMISS:    1766886  itACCESS:          0  itHIT:          0  itMISS:          0  dtACCESS:          0  dtHIT:          0  dtMISS:          0
cpu0_L2C WRITE        ACCESS:     279225  HIT:     143485  MISS:     135740  iACCESS:          0  iHIT:          0  iMISS:          0  dACCESS:     279225  dHIT:     143485  dMISS:     135740  itACCESS:          0  itHIT:          0  itMISS:          0  dtACCESS:          0  dtHIT:          0  dtMISS:          0
cpu0_L2C TRANSLATION  ACCESS:     251688  HIT:     128027  MISS:     123661  iACCESS:          0  iHIT:          0  iMISS:          0  dACCESS:          0  dHIT:          0  dMISS:          0  itACCESS:      78689  itHIT:      40556  itMISS:      38133  dtACCESS:     172999  dtHIT:      87471  dtMISS:      85528
cpu0_L2C PREFETCH  REQUESTED:    1528840  ISSUED:    1528832  CROSSED:          0  USEFUL:     417051  USELESS:     384910
cpu0_L2C AVERAGE iMISS LATENCY: 24.8011 cycles
cpu0_L2C AVERAGE dMISS LATENCY: 42.3546 cycles
cpu0_L2C AVERAGE itMISS LATENCY: 1.09418 cycles
cpu0_L2C AVERAGE dtMISS LATENCY: 2.74971 cycles
cpu0_L2C PAGE CROSSINGS (TLB HIT):         0 
cpu0_L2C PAGE CROSSINGS (TLB MISS):         0 
cpu0_L2C AVERAGE MISS LATENCY: 70.9995 cycles
LLC TOTAL       ACCESS:    5015015  HIT:    3328087  MISS:    1686928  iACCESS:    2108787  iHIT:    1525684  iMISS:     583103  dACCESS:    2782567  dHIT:    1773102  dMISS:    1009465  itACCESS:      38133  itHIT:      10412  itMISS:      27721  dtACCESS:      85528  dtHIT:      18889  dtMISS:      66639
LLC LOAD         ACCESS:    1297236  HIT:     916434  MISS:     380802  iACCESS:     525210  iHIT:     402629  iMISS:     122581  dACCESS:     772026  dHIT:     513805  dMISS:     258221  itACCESS:          0  itHIT:          0  itMISS:          0  dtACCESS:          0  dtHIT:          0  dtMISS:          0
LLC RFO          ACCESS:     133255  HIT:      73777  MISS:      59478  iACCESS:          0  iHIT:          0  iMISS:          0  dACCESS:     133255  dHIT:      73777  dMISS:      59478  itACCESS:          0  itHIT:          0  itMISS:          0  dtACCESS:          0  dtHIT:          0  dtMISS:          0
LLC PREFETCH     ACCESS:    3250347  HIT:    2101536  MISS:    1148811  iACCESS:    1583577  iHIT:    1123055  iMISS:     460522  dACCESS:    1666770  dHIT:     978481  dMISS:     688289  itACCESS:          0  itHIT:          0  itMISS:          0  dtACCESS:          0  dtHIT:          0  dtMISS:          0
LLC WRITE        ACCESS:     210516  HIT:     207039  MISS:       3477  iACCESS:          0  iHIT:          0  iMISS:          0  dACCESS:     210516  dHIT:     207039  dMISS:       3477  itACCESS:          0  itHIT:          0  itMISS:          0  dtACCESS:          0  dtHIT:          0  dtMISS:          0
LLC TRANSLATION  ACCESS:     123661  HIT:      29301  MISS:      94360  iACCESS:          0  iHIT:          0  iMISS:          0  dACCESS:          0  dHIT:          0  dMISS:          0  itACCESS:      38133  itHIT:      10412  itMISS:      27721  dtACCESS:      85528  dtHIT:      18889  dtMISS:      66639
LLC PREFETCH  REQUESTED:          0  ISSUED:          0  CROSSED:          0  USEFUL:          0  USELESS:          0
LLC AVERAGE iMISS LATENCY: 51.1028 cycles
LLC AVERAGE dMISS LATENCY: 100.358 cycles
LLC AVERAGE itMISS LATENCY: 2.87966 cycles
LLC AVERAGE dtMISS LATENCY: 7.35586 cycles
LLC PAGE CROSSINGS (TLB HIT):         0 
LLC PAGE CROSSINGS (TLB MISS):         0 
LLC AVERAGE MISS LATENCY: 161.696 cycles

PageTableWalker TOTAL       ACCESS:     113217  
PageTableWalker AVERAGE LATENCY: 3.87146 cycles
PageTableWalker TOTAL LATENCY: 438314 cycles

DRAM Statistics
Channel 0
 RQ ROW_BUFFER_HIT:     478568
  ROW_BUFFER_MISS:    1184645
 AVG DBUS CONGESTED CYCLE:    3.64465
 WQ ROW_BUFFER_HIT:      38398
  ROW_BUFFER_MISS:      34321  FULL:          0

