last_page:0x200000000000000
VMEM_RES_CAP:0x100000
PAGE_SIZE:4096
LOG2_PAGE_SIZE:12
LOG2_PAGE_TABLE_SIZE:9
page_table_levels:5
WARNING: physical memory size is smaller than virtual memory size
FDiP enabled with aggresivity 16

*** ChampSim Multicore Out-of-Order Simulator ***

Warmup Instructions: 50000000
Simulation Instructions: 100000000
Number of CPUs: 1
Small page size: 4096
Large page size: 2097152

CPU 0 Bimodal branch predictor
Basic BTB sets: 1024 ways: 8 indirect buffer size: 4096 RAS size: 64
Instruction page size distrubution: 0
Loading instruction page size distribution from /home/bsc/bsc018186/scratch/itp_asplos25_AE/dump/srv56_ap.pdst
Data page size distrubution: 0
Loading data page size distribution from /home/bsc/bsc018186/scratch/itp_asplos25_AE/dump/srv56_ap.pdst
cpu0_L2C IP-based stride prefetcher
cpu0_L1D next line prefetcher
CHiRPing...
cpu0_L1I next line prefetcher
Off-chip DRAM Size: 4 GiB Channels: 1 Width: 64-bit Data Rate: 3200 MT/s
Heartbeat CPU 0 instructions: 10000000 cycles: 2500270 heartbeat IPC: 3.99957 cumulative IPC: 3.99957 (Simulation time: 0 hr 0 min 38 sec) 
Heartbeat CPU 0 instructions: 20000000 cycles: 5000290 heartbeat IPC: 3.99997 cumulative IPC: 3.99977 (Simulation time: 0 hr 1 min 17 sec) 
Heartbeat CPU 0 instructions: 30000002 cycles: 7500323 heartbeat IPC: 3.99995 cumulative IPC: 3.99983 (Simulation time: 0 hr 1 min 58 sec) 
Heartbeat CPU 0 instructions: 40000000 cycles: 10000419 heartbeat IPC: 3.99985 cumulative IPC: 3.99984 (Simulation time: 0 hr 2 min 39 sec) 
Heartbeat CPU 0 instructions: 50000003 cycles: 12500481 heartbeat IPC: 3.99991 cumulative IPC: 3.99985 (Simulation time: 0 hr 3 min 20 sec) 
Warmup finished CPU 0 instructions: 50000003 cycles: 12500482 cumulative IPC: 3.99985 (Simulation time: 0 hr 3 min 20 sec) 

Warmup complete CPU 0 instructions: 50000003 cycles: 12500482 (Simulation time: 0 hr 3 min 20 sec) 

Heartbeat CPU 0 instructions: 60000000 cycles: 28260816 heartbeat IPC: 0.634505 cumulative IPC: 0.634505 (Simulation time: 0 hr 4 min 26 sec) 
Heartbeat CPU 0 instructions: 70000000 cycles: 43804683 heartbeat IPC: 0.643341 cumulative IPC: 0.638892 (Simulation time: 0 hr 5 min 31 sec) 
Heartbeat CPU 0 instructions: 80000004 cycles: 60005498 heartbeat IPC: 0.617254 cumulative IPC: 0.631513 (Simulation time: 0 hr 6 min 36 sec) 
Heartbeat CPU 0 instructions: 90000000 cycles: 75776815 heartbeat IPC: 0.634063 cumulative IPC: 0.632148 (Simulation time: 0 hr 7 min 39 sec) 
Heartbeat CPU 0 instructions: 100000001 cycles: 90784253 heartbeat IPC: 0.666337 cumulative IPC: 0.638702 (Simulation time: 0 hr 8 min 40 sec) 
*** Reached end of trace: /gpfs/projects/bsc18/MN4/bsc18/romol/ChampSim/traces/qualcomm_srv/srv56_ap.champsimtrace.xz
Heartbeat CPU 0 instructions: 110000001 cycles: 106647785 heartbeat IPC: 0.630377 cumulative IPC: 0.6373 (Simulation time: 0 hr 9 min 43 sec) 
Heartbeat CPU 0 instructions: 120000000 cycles: 122067997 heartbeat IPC: 0.6485 cumulative IPC: 0.638876 (Simulation time: 0 hr 10 min 44 sec) 
Heartbeat CPU 0 instructions: 130000000 cycles: 137301962 heartbeat IPC: 0.656428 cumulative IPC: 0.641019 (Simulation time: 0 hr 11 min 46 sec) 
Heartbeat CPU 0 instructions: 140000003 cycles: 154131999 heartbeat IPC: 0.594176 cumulative IPC: 0.635452 (Simulation time: 0 hr 12 min 50 sec) 
Heartbeat CPU 0 instructions: 150000002 cycles: 169670966 heartbeat IPC: 0.643544 cumulative IPC: 0.636252 (Simulation time: 0 hr 13 min 51 sec) 
Simulation finished CPU 0 instructions: 100000001 cycles: 157170486 cumulative IPC: 0.636252 (Simulation time: 0 hr 13 min 51 sec) 

Simulation complete CPU 0 instructions: 100000001 cycles: 157170486 (Simulation time: 0 hr 13 min 51 sec) 


ChampSim completed all CPUs

Saving instructions large page distribution to /home/bsc/bsc018186/scratch/itp_asplos25_AE/dump/srv56_ap.pdst...
Saving data large page distribution to /home/bsc/bsc018186/scratch/itp_asplos25_AE/dump/srv56_ap.pdst...
=== Simulation ===
CPU 0 runs /gpfs/projects/bsc18/MN4/bsc18/romol/ChampSim/traces/qualcomm_srv/srv56_ap.champsimtrace.xz

Region of Interest Statistics

CPU 0 cumulative IPC: 0.636252 instructions: 100000001 cycles: 157170486
CPU 0 Branch Prediction Accuracy: 82.5083% MPKI: 31.3359 Average ROB Occupancy at Mispredict: 13.2377
Branch type MPKI
BRANCH_DIRECT_JUMP: 1.06978
BRANCH_INDIRECT: 16.1898
BRANCH_CONDITIONAL: 10.2461
BRANCH_DIRECT_CALL: 1.92883
BRANCH_INDIRECT_CALL: 0.51639
BRANCH_RETURN: 1.38511

Instructions large pages: 0
Instructions small pages: 10539
Large page distribution for instructions: 0%

Data large pages: 0
Data small pages: 9572
Large page distribution for data: 0%

cpu0_L1I TOTAL       ACCESS:   35191987  HIT:   27372307  MISS:    7819680  iACCESS:   35191987  iHIT:   27372307  iMISS:    7819680  dACCESS:          0  dHIT:          0  dMISS:          0  itACCESS:          0  itHIT:          0  itMISS:          0  dtACCESS:          0  dtHIT:          0  dtMISS:          0
cpu0_L1I LOAD         ACCESS:   10321825  HIT:    8130221  MISS:    2191604  iACCESS:   10321825  iHIT:    8130221  iMISS:    2191604  dACCESS:          0  dHIT:          0  dMISS:          0  itACCESS:          0  itHIT:          0  itMISS:          0  dtACCESS:          0  dtHIT:          0  dtMISS:          0
cpu0_L1I RFO          ACCESS:          0  HIT:          0  MISS:          0  iACCESS:          0  iHIT:          0  iMISS:          0  dACCESS:          0  dHIT:          0  dMISS:          0  itACCESS:          0  itHIT:          0  itMISS:          0  dtACCESS:          0  dtHIT:          0  dtMISS:          0
cpu0_L1I PREFETCH     ACCESS:   24870162  HIT:   19242086  MISS:    5628076  iACCESS:   24870162  iHIT:   19242086  iMISS:    5628076  dACCESS:          0  dHIT:          0  dMISS:          0  itACCESS:          0  itHIT:          0  itMISS:          0  dtACCESS:          0  dtHIT:          0  dtMISS:          0
cpu0_L1I WRITE        ACCESS:          0  HIT:          0  MISS:          0  iACCESS:          0  iHIT:          0  iMISS:          0  dACCESS:          0  dHIT:          0  dMISS:          0  itACCESS:          0  itHIT:          0  itMISS:          0  dtACCESS:          0  dtHIT:          0  dtMISS:          0
cpu0_L1I TRANSLATION  ACCESS:          0  HIT:          0  MISS:          0  iACCESS:          0  iHIT:          0  iMISS:          0  dACCESS:          0  dHIT:          0  dMISS:          0  itACCESS:          0  itHIT:          0  itMISS:          0  dtACCESS:          0  dtHIT:          0  dtMISS:          0
cpu0_L1I PREFETCH  REQUESTED:   27403860  ISSUED:   27403860  CROSSED:          0  USEFUL:    1931540  USELESS:     626006
cpu0_L1I AVERAGE iMISS LATENCY: 13.0313 cycles
cpu0_L1I AVERAGE dMISS LATENCY: 0 cycles
cpu0_L1I AVERAGE itMISS LATENCY: 0 cycles
cpu0_L1I AVERAGE dtMISS LATENCY: 0 cycles
cpu0_L1I PAGE CROSSINGS (TLB HIT):         0 
cpu0_L1I PAGE CROSSINGS (TLB MISS):         0 
cpu0_L1I AVERAGE MISS LATENCY: 13.0313 cycles
cpu0_ITLB TOTAL       ACCESS:   29377202  HIT:   27443481  MISS:    1933721  iACCESS:   29377202  iHIT:   27443481  iMISS:    1933721  dACCESS:          0  dHIT:          0  dMISS:          0  itACCESS:          0  itHIT:          0  itMISS:          0  dtACCESS:          0  dtHIT:          0  dtMISS:          0
cpu0_ITLB LOAD         ACCESS:   29377202  HIT:   27443481  MISS:    1933721  iACCESS:   29377202  iHIT:   27443481  iMISS:    1933721  dACCESS:          0  dHIT:          0  dMISS:          0  itACCESS:          0  itHIT:          0  itMISS:          0  dtACCESS:          0  dtHIT:          0  dtMISS:          0
cpu0_ITLB RFO          ACCESS:          0  HIT:          0  MISS:          0  iACCESS:          0  iHIT:          0  iMISS:          0  dACCESS:          0  dHIT:          0  dMISS:          0  itACCESS:          0  itHIT:          0  itMISS:          0  dtACCESS:          0  dtHIT:          0  dtMISS:          0
cpu0_ITLB PREFETCH     ACCESS:          0  HIT:          0  MISS:          0  iACCESS:          0  iHIT:          0  iMISS:          0  dACCESS:          0  dHIT:          0  dMISS:          0  itACCESS:          0  itHIT:          0  itMISS:          0  dtACCESS:          0  dtHIT:          0  dtMISS:          0
cpu0_ITLB WRITE        ACCESS:          0  HIT:          0  MISS:          0  iACCESS:          0  iHIT:          0  iMISS:          0  dACCESS:          0  dHIT:          0  dMISS:          0  itACCESS:          0  itHIT:          0  itMISS:          0  dtACCESS:          0  dtHIT:          0  dtMISS:          0
cpu0_ITLB TRANSLATION  ACCESS:          0  HIT:          0  MISS:          0  iACCESS:          0  iHIT:          0  iMISS:          0  dACCESS:          0  dHIT:          0  dMISS:          0  itACCESS:          0  itHIT:          0  itMISS:          0  dtACCESS:          0  dtHIT:          0  dtMISS:          0
cpu0_ITLB PREFETCH  REQUESTED:          0  ISSUED:          0  CROSSED:          0  USEFUL:     316834  USELESS:      63440
cpu0_ITLB AVERAGE iMISS LATENCY: 5.26703 cycles
cpu0_ITLB AVERAGE dMISS LATENCY: 0 cycles
cpu0_ITLB AVERAGE itMISS LATENCY: 0 cycles
cpu0_ITLB AVERAGE dtMISS LATENCY: 0 cycles
cpu0_ITLB PAGE CROSSINGS (TLB HIT):         0 
cpu0_ITLB PAGE CROSSINGS (TLB MISS):         0 
cpu0_ITLB AVERAGE MISS LATENCY: 5.26703 cycles
cpu0_DTLB TOTAL       ACCESS:   27884397  HIT:   26020306  MISS:    1864091  iACCESS:          0  iHIT:          0  iMISS:          0  dACCESS:   27884397  dHIT:   26020306  dMISS:    1864091  itACCESS:          0  itHIT:          0  itMISS:          0  dtACCESS:          0  dtHIT:          0  dtMISS:          0
cpu0_DTLB LOAD         ACCESS:   27884397  HIT:   26020306  MISS:    1864091  iACCESS:          0  iHIT:          0  iMISS:          0  dACCESS:   27884397  dHIT:   26020306  dMISS:    1864091  itACCESS:          0  itHIT:          0  itMISS:          0  dtACCESS:          0  dtHIT:          0  dtMISS:          0
cpu0_DTLB RFO          ACCESS:          0  HIT:          0  MISS:          0  iACCESS:          0  iHIT:          0  iMISS:          0  dACCESS:          0  dHIT:          0  dMISS:          0  itACCESS:          0  itHIT:          0  itMISS:          0  dtACCESS:          0  dtHIT:          0  dtMISS:          0
cpu0_DTLB PREFETCH     ACCESS:          0  HIT:          0  MISS:          0  iACCESS:          0  iHIT:          0  iMISS:          0  dACCESS:          0  dHIT:          0  dMISS:          0  itACCESS:          0  itHIT:          0  itMISS:          0  dtACCESS:          0  dtHIT:          0  dtMISS:          0
cpu0_DTLB WRITE        ACCESS:          0  HIT:          0  MISS:          0  iACCESS:          0  iHIT:          0  iMISS:          0  dACCESS:          0  dHIT:          0  dMISS:          0  itACCESS:          0  itHIT:          0  itMISS:          0  dtACCESS:          0  dtHIT:          0  dtMISS:          0
cpu0_DTLB TRANSLATION  ACCESS:          0  HIT:          0  MISS:          0  iACCESS:          0  iHIT:          0  iMISS:          0  dACCESS:          0  dHIT:          0  dMISS:          0  itACCESS:          0  itHIT:          0  itMISS:          0  dtACCESS:          0  dtHIT:          0  dtMISS:          0
cpu0_DTLB PREFETCH  REQUESTED:          0  ISSUED:          0  CROSSED:          0  USEFUL:          0  USELESS:          0
cpu0_DTLB AVERAGE iMISS LATENCY: 0 cycles
cpu0_DTLB AVERAGE dMISS LATENCY: 16.325 cycles
cpu0_DTLB AVERAGE itMISS LATENCY: 0 cycles
cpu0_DTLB AVERAGE dtMISS LATENCY: 0 cycles
cpu0_DTLB PAGE CROSSINGS (TLB HIT):         0 
cpu0_DTLB PAGE CROSSINGS (TLB MISS):         0 
cpu0_DTLB AVERAGE MISS LATENCY: 16.325 cycles
cpu0_STLB TOTAL       ACCESS:    1526525  HIT:    1355001  MISS:     171524  iACCESS:     380275  iHIT:     320603  iMISS:      59672  dACCESS:    1146250  dHIT:    1034398  dMISS:     111852  itACCESS:          0  itHIT:          0  itMISS:          0  dtACCESS:          0  dtHIT:          0  dtMISS:          0
cpu0_STLB LOAD         ACCESS:    1526525  HIT:    1355001  MISS:     171524  iACCESS:     380275  iHIT:     320603  iMISS:      59672  dACCESS:    1146250  dHIT:    1034398  dMISS:     111852  itACCESS:          0  itHIT:          0  itMISS:          0  dtACCESS:          0  dtHIT:          0  dtMISS:          0
cpu0_STLB RFO          ACCESS:          0  HIT:          0  MISS:          0  iACCESS:          0  iHIT:          0  iMISS:          0  dACCESS:          0  dHIT:          0  dMISS:          0  itACCESS:          0  itHIT:          0  itMISS:          0  dtACCESS:          0  dtHIT:          0  dtMISS:          0
cpu0_STLB PREFETCH     ACCESS:          0  HIT:          0  MISS:          0  iACCESS:          0  iHIT:          0  iMISS:          0  dACCESS:          0  dHIT:          0  dMISS:          0  itACCESS:          0  itHIT:          0  itMISS:          0  dtACCESS:          0  dtHIT:          0  dtMISS:          0
cpu0_STLB WRITE        ACCESS:          0  HIT:          0  MISS:          0  iACCESS:          0  iHIT:          0  iMISS:          0  dACCESS:          0  dHIT:          0  dMISS:          0  itACCESS:          0  itHIT:          0  itMISS:          0  dtACCESS:          0  dtHIT:          0  dtMISS:          0
cpu0_STLB TRANSLATION  ACCESS:          0  HIT:          0  MISS:          0  iACCESS:          0  iHIT:          0  iMISS:          0  dACCESS:          0  dHIT:          0  dMISS:          0  itACCESS:          0  itHIT:          0  itMISS:          0  dtACCESS:          0  dtHIT:          0  dtMISS:          0
cpu0_STLB PREFETCH  REQUESTED:          0  ISSUED:          0  CROSSED:          0  USEFUL:          0  USELESS:          0
cpu0_STLB AVERAGE iMISS LATENCY: 41.856 cycles
cpu0_STLB AVERAGE dMISS LATENCY: 123.984 cycles
cpu0_STLB AVERAGE itMISS LATENCY: 0 cycles
cpu0_STLB AVERAGE dtMISS LATENCY: 0 cycles
cpu0_STLB PAGE CROSSINGS (TLB HIT):         0 
cpu0_STLB PAGE CROSSINGS (TLB MISS):         0 
cpu0_STLB AVERAGE MISS LATENCY: 165.84 cycles
cpu0_L1D TOTAL       ACCESS:   41685150  HIT:   38173985  MISS:    3511165  iACCESS:          0  iHIT:          0  iMISS:          0  dACCESS:   41449076  dHIT:   38153630  dMISS:    3295446  itACCESS:      64426  itHIT:       9209  itMISS:      55217  dtACCESS:     171648  dtHIT:      11146  dtMISS:     160502
cpu0_L1D LOAD         ACCESS:   19110887  HIT:   17613350  MISS:    1497537  iACCESS:          0  iHIT:          0  iMISS:          0  dACCESS:   19110887  dHIT:   17613350  dMISS:    1497537  itACCESS:          0  itHIT:          0  itMISS:          0  dtACCESS:          0  dtHIT:          0  dtMISS:          0
cpu0_L1D RFO          ACCESS:          0  HIT:          0  MISS:          0  iACCESS:          0  iHIT:          0  iMISS:          0  dACCESS:          0  dHIT:          0  dMISS:          0  itACCESS:          0  itHIT:          0  itMISS:          0  dtACCESS:          0  dtHIT:          0  dtMISS:          0
cpu0_L1D PREFETCH     ACCESS:   12142811  HIT:   10782058  MISS:    1360753  iACCESS:          0  iHIT:          0  iMISS:          0  dACCESS:   12142811  dHIT:   10782058  dMISS:    1360753  itACCESS:          0  itHIT:          0  itMISS:          0  dtACCESS:          0  dtHIT:          0  dtMISS:          0
cpu0_L1D WRITE        ACCESS:   10195378  HIT:    9758222  MISS:     437156  iACCESS:          0  iHIT:          0  iMISS:          0  dACCESS:   10195378  dHIT:    9758222  dMISS:     437156  itACCESS:          0  itHIT:          0  itMISS:          0  dtACCESS:          0  dtHIT:          0  dtMISS:          0
cpu0_L1D TRANSLATION  ACCESS:     236074  HIT:      20355  MISS:     215719  iACCESS:          0  iHIT:          0  iMISS:          0  dACCESS:          0  dHIT:          0  dMISS:          0  itACCESS:      64426  itHIT:       9209  itMISS:      55217  dtACCESS:     171648  dtHIT:      11146  dtMISS:     160502
cpu0_L1D PREFETCH  REQUESTED:   19110887  ISSUED:   16889984  CROSSED:          0  USEFUL:     306529  USELESS:     701261
cpu0_L1D AVERAGE iMISS LATENCY: 0 cycles
cpu0_L1D AVERAGE dMISS LATENCY: 33.478 cycles
cpu0_L1D AVERAGE itMISS LATENCY: 1.89843 cycles
cpu0_L1D AVERAGE dtMISS LATENCY: 5.38028 cycles
cpu0_L1D PAGE CROSSINGS (TLB HIT):         0 
cpu0_L1D PAGE CROSSINGS (TLB MISS):         0 
cpu0_L1D AVERAGE MISS LATENCY: 40.7567 cycles
cpu0_L2C TOTAL       ACCESS:    7006424  HIT:    3985161  MISS:    3021263  iACCESS:    3302112  iHIT:    2183001  iMISS:    1119111  dACCESS:    3501951  dHIT:    1774225  dMISS:    1727726  itACCESS:      55217  itHIT:       9812  itMISS:      45405  dtACCESS:     147144  dtHIT:      18123  dtMISS:     129021
cpu0_L2C LOAD         ACCESS:    1711833  HIT:    1012732  MISS:     699101  iACCESS:     783648  iHIT:     546391  iMISS:     237257  dACCESS:     928185  dHIT:     466341  dMISS:     461844  itACCESS:          0  itHIT:          0  itMISS:          0  dtACCESS:          0  dtHIT:          0  dtMISS:          0
cpu0_L2C RFO          ACCESS:     158285  HIT:      70902  MISS:      87383  iACCESS:          0  iHIT:          0  iMISS:          0  dACCESS:     158285  dHIT:      70902  dMISS:      87383  itACCESS:          0  itHIT:          0  itMISS:          0  dtACCESS:          0  dtHIT:          0  dtMISS:          0
cpu0_L2C PREFETCH     ACCESS:    4653757  HIT:    2594526  MISS:    2059231  iACCESS:    2518464  iHIT:    1636610  iMISS:     881854  dACCESS:    2135293  dHIT:     957916  dMISS:    1177377  itACCESS:          0  itHIT:          0  itMISS:          0  dtACCESS:          0  dtHIT:          0  dtMISS:          0
cpu0_L2C WRITE        ACCESS:     280188  HIT:     279066  MISS:       1122  iACCESS:          0  iHIT:          0  iMISS:          0  dACCESS:     280188  dHIT:     279066  dMISS:       1122  itACCESS:          0  itHIT:          0  itMISS:          0  dtACCESS:          0  dtHIT:          0  dtMISS:          0
cpu0_L2C TRANSLATION  ACCESS:     202361  HIT:      27935  MISS:     174426  iACCESS:          0  iHIT:          0  iMISS:          0  dACCESS:          0  dHIT:          0  dMISS:          0  itACCESS:      55217  itHIT:       9812  itMISS:      45405  dtACCESS:     147144  dtHIT:      18123  dtMISS:     129021
cpu0_L2C PREFETCH  REQUESTED:    1391769  ISSUED:    1391769  CROSSED:          0  USEFUL:     335704  USELESS:     244589
cpu0_L2C AVERAGE iMISS LATENCY: 23.6816 cycles
cpu0_L2C AVERAGE dMISS LATENCY: 46.1124 cycles
cpu0_L2C AVERAGE itMISS LATENCY: 2.0262 cycles
cpu0_L2C AVERAGE dtMISS LATENCY: 5.76784 cycles
cpu0_L2C PAGE CROSSINGS (TLB HIT):         0 
cpu0_L2C PAGE CROSSINGS (TLB MISS):         0 
cpu0_L2C AVERAGE MISS LATENCY: 77.588 cycles
LLC TOTAL       ACCESS:    3040599  HIT:    1916706  MISS:    1123893  iACCESS:    1059703  iHIT:     712560  iMISS:     347143  dACCESS:    1806470  dHIT:    1142260  dMISS:     664210  itACCESS:      45405  itHIT:      14749  itMISS:      30656  dtACCESS:     129021  dtHIT:      47137  dtMISS:      81884
LLC LOAD         ACCESS:     697525  HIT:     453295  MISS:     244230  iACCESS:     235970  iHIT:     160474  iMISS:      75496  dACCESS:     461555  dHIT:     292821  dMISS:     168734  itACCESS:          0  itHIT:          0  itMISS:          0  dtACCESS:          0  dtHIT:          0  dtMISS:          0
LLC RFO          ACCESS:      87380  HIT:      46964  MISS:      40416  iACCESS:          0  iHIT:          0  iMISS:          0  dACCESS:      87380  dHIT:      46964  dMISS:      40416  itACCESS:          0  itHIT:          0  itMISS:          0  dtACCESS:          0  dtHIT:          0  dtMISS:          0
LLC PREFETCH     ACCESS:    1944153  HIT:    1224421  MISS:     719732  iACCESS:     823733  iHIT:     552086  iMISS:     271647  dACCESS:    1120420  dHIT:     672335  dMISS:     448085  itACCESS:          0  itHIT:          0  itMISS:          0  dtACCESS:          0  dtHIT:          0  dtMISS:          0
LLC WRITE        ACCESS:     137115  HIT:     130140  MISS:       6975  iACCESS:          0  iHIT:          0  iMISS:          0  dACCESS:     137115  dHIT:     130140  dMISS:       6975  itACCESS:          0  itHIT:          0  itMISS:          0  dtACCESS:          0  dtHIT:          0  dtMISS:          0
LLC TRANSLATION  ACCESS:     174426  HIT:      61886  MISS:     112540  iACCESS:          0  iHIT:          0  iMISS:          0  dACCESS:          0  dHIT:          0  dMISS:          0  itACCESS:      45405  itHIT:      14749  itMISS:      30656  dtACCESS:     129021  dtHIT:      47137  dtMISS:      81884
LLC PREFETCH  REQUESTED:          0  ISSUED:          0  CROSSED:          0  USEFUL:          0  USELESS:          0
LLC AVERAGE iMISS LATENCY: 45.3309 cycles
LLC AVERAGE dMISS LATENCY: 95.3254 cycles
LLC AVERAGE itMISS LATENCY: 4.65379 cycles
LLC AVERAGE dtMISS LATENCY: 13.2583 cycles
LLC PAGE CROSSINGS (TLB HIT):         0 
LLC PAGE CROSSINGS (TLB MISS):         0 
LLC AVERAGE MISS LATENCY: 158.569 cycles

PageTableWalker TOTAL       ACCESS:      87205  
PageTableWalker AVERAGE LATENCY: 5.20539 cycles
PageTableWalker TOTAL LATENCY: 453936 cycles

DRAM Statistics
Channel 0
 RQ ROW_BUFFER_HIT:     294363
  ROW_BUFFER_MISS:     822452
 AVG DBUS CONGESTED CYCLE:    3.61941
 WQ ROW_BUFFER_HIT:      22358
  ROW_BUFFER_MISS:      21084  FULL:          0

