last_page:0x200000000000000
VMEM_RES_CAP:0x100000
PAGE_SIZE:4096
LOG2_PAGE_SIZE:12
LOG2_PAGE_TABLE_SIZE:9
page_table_levels:5
WARNING: physical memory size is smaller than virtual memory size
FDiP enabled with aggresivity 16

*** ChampSim Multicore Out-of-Order Simulator ***

Warmup Instructions: 50000000
Simulation Instructions: 100000000
Number of CPUs: 1
Small page size: 4096
Large page size: 2097152

CPU 0 Bimodal branch predictor
Basic BTB sets: 1024 ways: 8 indirect buffer size: 4096 RAS size: 64
Instruction page size distrubution: 0
Loading instruction page size distribution from /home/bsc/bsc018186/scratch/itp_asplos25_AE/dump/srv504_ap.pdst
Data page size distrubution: 0
Loading data page size distribution from /home/bsc/bsc018186/scratch/itp_asplos25_AE/dump/srv504_ap.pdst
cpu0_L2C IP-based stride prefetcher
cpu0_L1D next line prefetcher
CHiRPing...
cpu0_L1I next line prefetcher
Off-chip DRAM Size: 4 GiB Channels: 1 Width: 64-bit Data Rate: 3200 MT/s
Heartbeat CPU 0 instructions: 10000000 cycles: 2500438 heartbeat IPC: 3.9993 cumulative IPC: 3.9993 (Simulation time: 0 hr 0 min 39 sec) 
Heartbeat CPU 0 instructions: 20000003 cycles: 5002224 heartbeat IPC: 3.99715 cumulative IPC: 3.99823 (Simulation time: 0 hr 1 min 20 sec) 
Heartbeat CPU 0 instructions: 30000003 cycles: 7502331 heartbeat IPC: 3.99983 cumulative IPC: 3.99876 (Simulation time: 0 hr 2 min 2 sec) 
Heartbeat CPU 0 instructions: 40000003 cycles: 10002375 heartbeat IPC: 3.99993 cumulative IPC: 3.99906 (Simulation time: 0 hr 2 min 43 sec) 
Heartbeat CPU 0 instructions: 50000002 cycles: 12502412 heartbeat IPC: 3.99995 cumulative IPC: 3.99923 (Simulation time: 0 hr 3 min 25 sec) 
Warmup finished CPU 0 instructions: 50000002 cycles: 12502413 cumulative IPC: 3.99923 (Simulation time: 0 hr 3 min 25 sec) 

Warmup complete CPU 0 instructions: 50000002 cycles: 12502413 (Simulation time: 0 hr 3 min 25 sec) 

Heartbeat CPU 0 instructions: 60000002 cycles: 32991672 heartbeat IPC: 0.488061 cumulative IPC: 0.488061 (Simulation time: 0 hr 4 min 38 sec) 
Heartbeat CPU 0 instructions: 70000000 cycles: 53910116 heartbeat IPC: 0.478047 cumulative IPC: 0.483002 (Simulation time: 0 hr 5 min 52 sec) 
Heartbeat CPU 0 instructions: 80000000 cycles: 74077120 heartbeat IPC: 0.49586 cumulative IPC: 0.487214 (Simulation time: 0 hr 7 min 5 sec) 
Heartbeat CPU 0 instructions: 90000003 cycles: 93976954 heartbeat IPC: 0.502517 cumulative IPC: 0.490951 (Simulation time: 0 hr 8 min 17 sec) 
Heartbeat CPU 0 instructions: 100000000 cycles: 114137995 heartbeat IPC: 0.496006 cumulative IPC: 0.491954 (Simulation time: 0 hr 9 min 30 sec) 
*** Reached end of trace: /gpfs/projects/bsc18/MN4/bsc18/romol/ChampSim/traces/qualcomm_srv/srv504_ap.champsimtrace.xz
Heartbeat CPU 0 instructions: 110000004 cycles: 134362456 heartbeat IPC: 0.494451 cumulative IPC: 0.492369 (Simulation time: 0 hr 10 min 43 sec) 
Heartbeat CPU 0 instructions: 120000001 cycles: 155624599 heartbeat IPC: 0.47032 cumulative IPC: 0.489093 (Simulation time: 0 hr 11 min 57 sec) 
Heartbeat CPU 0 instructions: 130000004 cycles: 174917806 heartbeat IPC: 0.518318 cumulative IPC: 0.492565 (Simulation time: 0 hr 13 min 9 sec) 
Heartbeat CPU 0 instructions: 140000002 cycles: 195964985 heartbeat IPC: 0.475123 cumulative IPC: 0.490564 (Simulation time: 0 hr 14 min 23 sec) 
Heartbeat CPU 0 instructions: 150000003 cycles: 215880655 heartbeat IPC: 0.502118 cumulative IPC: 0.491695 (Simulation time: 0 hr 15 min 37 sec) 
Simulation finished CPU 0 instructions: 100000001 cycles: 203378243 cumulative IPC: 0.491695 (Simulation time: 0 hr 15 min 37 sec) 

Simulation complete CPU 0 instructions: 100000001 cycles: 203378243 (Simulation time: 0 hr 15 min 37 sec) 


ChampSim completed all CPUs

Saving instructions large page distribution to /home/bsc/bsc018186/scratch/itp_asplos25_AE/dump/srv504_ap.pdst...
Saving data large page distribution to /home/bsc/bsc018186/scratch/itp_asplos25_AE/dump/srv504_ap.pdst...
=== Simulation ===
CPU 0 runs /gpfs/projects/bsc18/MN4/bsc18/romol/ChampSim/traces/qualcomm_srv/srv504_ap.champsimtrace.xz

Region of Interest Statistics

CPU 0 cumulative IPC: 0.491695 instructions: 100000001 cycles: 203378243
CPU 0 Branch Prediction Accuracy: 80.3433% MPKI: 35.5672 Average ROB Occupancy at Mispredict: 10.831
Branch type MPKI
BRANCH_DIRECT_JUMP: 1.31302
BRANCH_INDIRECT: 17.8997
BRANCH_CONDITIONAL: 11.5116
BRANCH_DIRECT_CALL: 2.4806
BRANCH_INDIRECT_CALL: 0.67004
BRANCH_RETURN: 1.6923

Instructions large pages: 0
Instructions small pages: 1177
Large page distribution for instructions: 0%

Data large pages: 0
Data small pages: 5330
Large page distribution for data: 0%

cpu0_L1I TOTAL       ACCESS:   36106055  HIT:   28088821  MISS:    8017234  iACCESS:   36106055  iHIT:   28088821  iMISS:    8017234  dACCESS:          0  dHIT:          0  dMISS:          0  itACCESS:          0  itHIT:          0  itMISS:          0  dtACCESS:          0  dtHIT:          0  dtMISS:          0
cpu0_L1I LOAD         ACCESS:   10565966  HIT:    8352439  MISS:    2213527  iACCESS:   10565966  iHIT:    8352439  iMISS:    2213527  dACCESS:          0  dHIT:          0  dMISS:          0  itACCESS:          0  itHIT:          0  itMISS:          0  dtACCESS:          0  dtHIT:          0  dtMISS:          0
cpu0_L1I RFO          ACCESS:          0  HIT:          0  MISS:          0  iACCESS:          0  iHIT:          0  iMISS:          0  dACCESS:          0  dHIT:          0  dMISS:          0  itACCESS:          0  itHIT:          0  itMISS:          0  dtACCESS:          0  dtHIT:          0  dtMISS:          0
cpu0_L1I PREFETCH     ACCESS:   25540089  HIT:   19736382  MISS:    5803707  iACCESS:   25540089  iHIT:   19736382  iMISS:    5803707  dACCESS:          0  dHIT:          0  dMISS:          0  itACCESS:          0  itHIT:          0  itMISS:          0  dtACCESS:          0  dtHIT:          0  dtMISS:          0
cpu0_L1I WRITE        ACCESS:          0  HIT:          0  MISS:          0  iACCESS:          0  iHIT:          0  iMISS:          0  dACCESS:          0  dHIT:          0  dMISS:          0  itACCESS:          0  itHIT:          0  itMISS:          0  dtACCESS:          0  dtHIT:          0  dtMISS:          0
cpu0_L1I TRANSLATION  ACCESS:          0  HIT:          0  MISS:          0  iACCESS:          0  iHIT:          0  iMISS:          0  dACCESS:          0  dHIT:          0  dMISS:          0  itACCESS:          0  itHIT:          0  itMISS:          0  dtACCESS:          0  dtHIT:          0  dtMISS:          0
cpu0_L1I PREFETCH  REQUESTED:   28104598  ISSUED:   28104550  CROSSED:          0  USEFUL:    2008791  USELESS:     660747
cpu0_L1I AVERAGE iMISS LATENCY: 18.8173 cycles
cpu0_L1I AVERAGE dMISS LATENCY: 0 cycles
cpu0_L1I AVERAGE itMISS LATENCY: 0 cycles
cpu0_L1I AVERAGE dtMISS LATENCY: 0 cycles
cpu0_L1I PAGE CROSSINGS (TLB HIT):         0 
cpu0_L1I PAGE CROSSINGS (TLB MISS):         0 
cpu0_L1I AVERAGE MISS LATENCY: 18.8173 cycles
cpu0_ITLB TOTAL       ACCESS:   30307636  HIT:   28339528  MISS:    1968108  iACCESS:   30307636  iHIT:   28339528  iMISS:    1968108  dACCESS:          0  dHIT:          0  dMISS:          0  itACCESS:          0  itHIT:          0  itMISS:          0  dtACCESS:          0  dtHIT:          0  dtMISS:          0
cpu0_ITLB LOAD         ACCESS:   30307636  HIT:   28339528  MISS:    1968108  iACCESS:   30307636  iHIT:   28339528  iMISS:    1968108  dACCESS:          0  dHIT:          0  dMISS:          0  itACCESS:          0  itHIT:          0  itMISS:          0  dtACCESS:          0  dtHIT:          0  dtMISS:          0
cpu0_ITLB RFO          ACCESS:          0  HIT:          0  MISS:          0  iACCESS:          0  iHIT:          0  iMISS:          0  dACCESS:          0  dHIT:          0  dMISS:          0  itACCESS:          0  itHIT:          0  itMISS:          0  dtACCESS:          0  dtHIT:          0  dtMISS:          0
cpu0_ITLB PREFETCH     ACCESS:          0  HIT:          0  MISS:          0  iACCESS:          0  iHIT:          0  iMISS:          0  dACCESS:          0  dHIT:          0  dMISS:          0  itACCESS:          0  itHIT:          0  itMISS:          0  dtACCESS:          0  dtHIT:          0  dtMISS:          0
cpu0_ITLB WRITE        ACCESS:          0  HIT:          0  MISS:          0  iACCESS:          0  iHIT:          0  iMISS:          0  dACCESS:          0  dHIT:          0  dMISS:          0  itACCESS:          0  itHIT:          0  itMISS:          0  dtACCESS:          0  dtHIT:          0  dtMISS:          0
cpu0_ITLB TRANSLATION  ACCESS:          0  HIT:          0  MISS:          0  iACCESS:          0  iHIT:          0  iMISS:          0  dACCESS:          0  dHIT:          0  dMISS:          0  itACCESS:          0  itHIT:          0  itMISS:          0  dtACCESS:          0  dtHIT:          0  dtMISS:          0
cpu0_ITLB PREFETCH  REQUESTED:          0  ISSUED:          0  CROSSED:          0  USEFUL:     329208  USELESS:      66802
cpu0_ITLB AVERAGE iMISS LATENCY: 7.4705 cycles
cpu0_ITLB AVERAGE dMISS LATENCY: 0 cycles
cpu0_ITLB AVERAGE itMISS LATENCY: 0 cycles
cpu0_ITLB AVERAGE dtMISS LATENCY: 0 cycles
cpu0_ITLB PAGE CROSSINGS (TLB HIT):         0 
cpu0_ITLB PAGE CROSSINGS (TLB MISS):         0 
cpu0_ITLB AVERAGE MISS LATENCY: 7.4705 cycles
cpu0_DTLB TOTAL       ACCESS:   27970599  HIT:   25876765  MISS:    2093834  iACCESS:          0  iHIT:          0  iMISS:          0  dACCESS:   27970599  dHIT:   25876765  dMISS:    2093834  itACCESS:          0  itHIT:          0  itMISS:          0  dtACCESS:          0  dtHIT:          0  dtMISS:          0
cpu0_DTLB LOAD         ACCESS:   27970599  HIT:   25876765  MISS:    2093834  iACCESS:          0  iHIT:          0  iMISS:          0  dACCESS:   27970599  dHIT:   25876765  dMISS:    2093834  itACCESS:          0  itHIT:          0  itMISS:          0  dtACCESS:          0  dtHIT:          0  dtMISS:          0
cpu0_DTLB RFO          ACCESS:          0  HIT:          0  MISS:          0  iACCESS:          0  iHIT:          0  iMISS:          0  dACCESS:          0  dHIT:          0  dMISS:          0  itACCESS:          0  itHIT:          0  itMISS:          0  dtACCESS:          0  dtHIT:          0  dtMISS:          0
cpu0_DTLB PREFETCH     ACCESS:          0  HIT:          0  MISS:          0  iACCESS:          0  iHIT:          0  iMISS:          0  dACCESS:          0  dHIT:          0  dMISS:          0  itACCESS:          0  itHIT:          0  itMISS:          0  dtACCESS:          0  dtHIT:          0  dtMISS:          0
cpu0_DTLB WRITE        ACCESS:          0  HIT:          0  MISS:          0  iACCESS:          0  iHIT:          0  iMISS:          0  dACCESS:          0  dHIT:          0  dMISS:          0  itACCESS:          0  itHIT:          0  itMISS:          0  dtACCESS:          0  dtHIT:          0  dtMISS:          0
cpu0_DTLB TRANSLATION  ACCESS:          0  HIT:          0  MISS:          0  iACCESS:          0  iHIT:          0  iMISS:          0  dACCESS:          0  dHIT:          0  dMISS:          0  itACCESS:          0  itHIT:          0  itMISS:          0  dtACCESS:          0  dtHIT:          0  dtMISS:          0
cpu0_DTLB PREFETCH  REQUESTED:          0  ISSUED:          0  CROSSED:          0  USEFUL:          0  USELESS:          0
cpu0_DTLB AVERAGE iMISS LATENCY: 0 cycles
cpu0_DTLB AVERAGE dMISS LATENCY: 18.5361 cycles
cpu0_DTLB AVERAGE itMISS LATENCY: 0 cycles
cpu0_DTLB AVERAGE dtMISS LATENCY: 0 cycles
cpu0_DTLB PAGE CROSSINGS (TLB HIT):         0 
cpu0_DTLB PAGE CROSSINGS (TLB MISS):         0 
cpu0_DTLB AVERAGE MISS LATENCY: 18.5361 cycles
cpu0_STLB TOTAL       ACCESS:    1619564  HIT:    1396950  MISS:     222614  iACCESS:     396010  iHIT:     310608  iMISS:      85402  dACCESS:    1223554  dHIT:    1086342  dMISS:     137212  itACCESS:          0  itHIT:          0  itMISS:          0  dtACCESS:          0  dtHIT:          0  dtMISS:          0
cpu0_STLB LOAD         ACCESS:    1619564  HIT:    1396950  MISS:     222614  iACCESS:     396010  iHIT:     310608  iMISS:      85402  dACCESS:    1223554  dHIT:    1086342  dMISS:     137212  itACCESS:          0  itHIT:          0  itMISS:          0  dtACCESS:          0  dtHIT:          0  dtMISS:          0
cpu0_STLB RFO          ACCESS:          0  HIT:          0  MISS:          0  iACCESS:          0  iHIT:          0  iMISS:          0  dACCESS:          0  dHIT:          0  dMISS:          0  itACCESS:          0  itHIT:          0  itMISS:          0  dtACCESS:          0  dtHIT:          0  dtMISS:          0
cpu0_STLB PREFETCH     ACCESS:          0  HIT:          0  MISS:          0  iACCESS:          0  iHIT:          0  iMISS:          0  dACCESS:          0  dHIT:          0  dMISS:          0  itACCESS:          0  itHIT:          0  itMISS:          0  dtACCESS:          0  dtHIT:          0  dtMISS:          0
cpu0_STLB WRITE        ACCESS:          0  HIT:          0  MISS:          0  iACCESS:          0  iHIT:          0  iMISS:          0  dACCESS:          0  dHIT:          0  dMISS:          0  itACCESS:          0  itHIT:          0  itMISS:          0  dtACCESS:          0  dtHIT:          0  dtMISS:          0
cpu0_STLB TRANSLATION  ACCESS:          0  HIT:          0  MISS:          0  iACCESS:          0  iHIT:          0  iMISS:          0  dACCESS:          0  dHIT:          0  dMISS:          0  itACCESS:          0  itHIT:          0  itMISS:          0  dtACCESS:          0  dtHIT:          0  dtMISS:          0
cpu0_STLB PREFETCH  REQUESTED:          0  ISSUED:          0  CROSSED:          0  USEFUL:          0  USELESS:          0
cpu0_STLB AVERAGE iMISS LATENCY: 51.8699 cycles
cpu0_STLB AVERAGE dMISS LATENCY: 130.487 cycles
cpu0_STLB AVERAGE itMISS LATENCY: 0 cycles
cpu0_STLB AVERAGE dtMISS LATENCY: 0 cycles
cpu0_STLB PAGE CROSSINGS (TLB HIT):         0 
cpu0_STLB PAGE CROSSINGS (TLB MISS):         0 
cpu0_STLB AVERAGE MISS LATENCY: 182.357 cycles
cpu0_L1D TOTAL       ACCESS:   43292598  HIT:   38528523  MISS:    4764075  iACCESS:          0  iHIT:          0  iMISS:          0  dACCESS:   43001485  dHIT:   38505234  dMISS:    4496251  itACCESS:      91188  itHIT:      12481  itMISS:      78707  dtACCESS:     199925  dtHIT:      10808  dtMISS:     189117
cpu0_L1D LOAD         ACCESS:   19642037  HIT:   17565774  MISS:    2076263  iACCESS:          0  iHIT:          0  iMISS:          0  dACCESS:   19642037  dHIT:   17565774  dMISS:    2076263  itACCESS:          0  itHIT:          0  itMISS:          0  dtACCESS:          0  dtHIT:          0  dtMISS:          0
cpu0_L1D RFO          ACCESS:          0  HIT:          0  MISS:          0  iACCESS:          0  iHIT:          0  iMISS:          0  dACCESS:          0  dHIT:          0  dMISS:          0  itACCESS:          0  itHIT:          0  itMISS:          0  dtACCESS:          0  dtHIT:          0  dtMISS:          0
cpu0_L1D PREFETCH     ACCESS:   13196137  HIT:   11236889  MISS:    1959248  iACCESS:          0  iHIT:          0  iMISS:          0  dACCESS:   13196137  dHIT:   11236889  dMISS:    1959248  itACCESS:          0  itHIT:          0  itMISS:          0  dtACCESS:          0  dtHIT:          0  dtMISS:          0
cpu0_L1D WRITE        ACCESS:   10163311  HIT:    9702571  MISS:     460740  iACCESS:          0  iHIT:          0  iMISS:          0  dACCESS:   10163311  dHIT:    9702571  dMISS:     460740  itACCESS:          0  itHIT:          0  itMISS:          0  dtACCESS:          0  dtHIT:          0  dtMISS:          0
cpu0_L1D TRANSLATION  ACCESS:     291113  HIT:      23289  MISS:     267824  iACCESS:          0  iHIT:          0  iMISS:          0  dACCESS:          0  dHIT:          0  dMISS:          0  itACCESS:      91188  itHIT:      12481  itMISS:      78707  dtACCESS:     199925  dtHIT:      10808  dtMISS:     189117
cpu0_L1D PREFETCH  REQUESTED:   19642037  ISSUED:   17454173  CROSSED:          0  USEFUL:     308891  USELESS:     706311
cpu0_L1D AVERAGE iMISS LATENCY: 0 cycles
cpu0_L1D AVERAGE dMISS LATENCY: 35.6115 cycles
cpu0_L1D AVERAGE itMISS LATENCY: 2.26737 cycles
cpu0_L1D AVERAGE dtMISS LATENCY: 5.67863 cycles
cpu0_L1D PAGE CROSSINGS (TLB HIT):         0 
cpu0_L1D PAGE CROSSINGS (TLB MISS):         0 
cpu0_L1D AVERAGE MISS LATENCY: 43.5575 cycles
cpu0_L2C TOTAL       ACCESS:    7341666  HIT:    3813715  MISS:    3527951  iACCESS:    3423399  iHIT:    2110472  iMISS:    1312927  dACCESS:    3666484  dHIT:    1665786  dMISS:    2000698  itACCESS:      78707  itHIT:      15995  itMISS:      62712  dtACCESS:     173076  dtHIT:      21462  dtMISS:     151614
cpu0_L2C LOAD         ACCESS:    1749705  HIT:     954598  MISS:     795107  iACCESS:     792175  iHIT:     522034  iMISS:     270141  dACCESS:     957530  dHIT:     432564  dMISS:     524966  itACCESS:          0  itHIT:          0  itMISS:          0  dtACCESS:          0  dtHIT:          0  dtMISS:          0
cpu0_L2C RFO          ACCESS:     163016  HIT:      64915  MISS:      98101  iACCESS:          0  iHIT:          0  iMISS:          0  dACCESS:     163016  dHIT:      64915  dMISS:      98101  itACCESS:          0  itHIT:          0  itMISS:          0  dtACCESS:          0  dtHIT:          0  dtMISS:          0
cpu0_L2C PREFETCH     ACCESS:    4897085  HIT:    2478242  MISS:    2418843  iACCESS:    2631224  iHIT:    1588438  iMISS:    1042786  dACCESS:    2265861  dHIT:     889804  dMISS:    1376057  itACCESS:          0  itHIT:          0  itMISS:          0  dtACCESS:          0  dtHIT:          0  dtMISS:          0
cpu0_L2C WRITE        ACCESS:     280077  HIT:     278503  MISS:       1574  iACCESS:          0  iHIT:          0  iMISS:          0  dACCESS:     280077  dHIT:     278503  dMISS:       1574  itACCESS:          0  itHIT:          0  itMISS:          0  dtACCESS:          0  dtHIT:          0  dtMISS:          0
cpu0_L2C TRANSLATION  ACCESS:     251783  HIT:      37457  MISS:     214326  iACCESS:          0  iHIT:          0  iMISS:          0  dACCESS:          0  dHIT:          0  dMISS:          0  itACCESS:      78707  itHIT:      15995  itMISS:      62712  dtACCESS:     173076  dtHIT:      21462  dtMISS:     151614
cpu0_L2C PREFETCH  REQUESTED:    1518281  ISSUED:    1518277  CROSSED:          0  USEFUL:     370356  USELESS:     295091
cpu0_L2C AVERAGE iMISS LATENCY: 34.1504 cycles
cpu0_L2C AVERAGE dMISS LATENCY: 61.5414 cycles
cpu0_L2C AVERAGE itMISS LATENCY: 2.84263 cycles
cpu0_L2C AVERAGE dtMISS LATENCY: 7.18091 cycles
cpu0_L2C PAGE CROSSINGS (TLB HIT):         0 
cpu0_L2C PAGE CROSSINGS (TLB MISS):         0 
cpu0_L2C AVERAGE MISS LATENCY: 105.716 cycles
LLC TOTAL       ACCESS:    3489359  HIT:    1579412  MISS:    1909947  iACCESS:    1234116  iHIT:     580637  iMISS:     653479  dACCESS:    2040917  dHIT:     952862  dMISS:    1088055  itACCESS:      62712  itHIT:      12794  itMISS:      49918  dtACCESS:     151614  dtHIT:      33119  dtMISS:     118495
LLC LOAD         ACCESS:     788423  HIT:     375326  MISS:     413097  iACCESS:     268944  iHIT:     131251  iMISS:     137693  dACCESS:     519479  dHIT:     244075  dMISS:     275404  itACCESS:          0  itHIT:          0  itMISS:          0  dtACCESS:          0  dtHIT:          0  dtMISS:          0
LLC RFO          ACCESS:      98098  HIT:      39597  MISS:      58501  iACCESS:          0  iHIT:          0  iMISS:          0  dACCESS:      98098  dHIT:      39597  dMISS:      58501  itACCESS:          0  itHIT:          0  itMISS:          0  dtACCESS:          0  dtHIT:          0  dtMISS:          0
LLC PREFETCH     ACCESS:    2242420  HIT:     980699  MISS:    1261721  iACCESS:     965172  iHIT:     449386  iMISS:     515786  dACCESS:    1277248  dHIT:     531313  dMISS:     745935  itACCESS:          0  itHIT:          0  itMISS:          0  dtACCESS:          0  dtHIT:          0  dtMISS:          0
LLC WRITE        ACCESS:     146092  HIT:     137877  MISS:       8215  iACCESS:          0  iHIT:          0  iMISS:          0  dACCESS:     146092  dHIT:     137877  dMISS:       8215  itACCESS:          0  itHIT:          0  itMISS:          0  dtACCESS:          0  dtHIT:          0  dtMISS:          0
LLC TRANSLATION  ACCESS:     214326  HIT:      45913  MISS:     168413  iACCESS:          0  iHIT:          0  iMISS:          0  dACCESS:          0  dHIT:          0  dMISS:          0  itACCESS:      62712  itHIT:      12794  itMISS:      49918  dtACCESS:     151614  dtHIT:      33119  dtMISS:     118495
LLC PREFETCH  REQUESTED:          0  ISSUED:          0  CROSSED:          0  USEFUL:          0  USELESS:          0
LLC AVERAGE iMISS LATENCY: 50.4435 cycles
LLC AVERAGE dMISS LATENCY: 95.6453 cycles
LLC AVERAGE itMISS LATENCY: 4.603 cycles
LLC AVERAGE dtMISS LATENCY: 11.7013 cycles
LLC PAGE CROSSINGS (TLB HIT):         0 
LLC PAGE CROSSINGS (TLB MISS):         0 
LLC AVERAGE MISS LATENCY: 162.393 cycles

PageTableWalker TOTAL       ACCESS:     113207  
PageTableWalker AVERAGE LATENCY: 5.06996 cycles
PageTableWalker TOTAL LATENCY: 573954 cycles

DRAM Statistics
Channel 0
 RQ ROW_BUFFER_HIT:     518013
  ROW_BUFFER_MISS:    1363054
 AVG DBUS CONGESTED CYCLE:    3.63287
 WQ ROW_BUFFER_HIT:      37230
  ROW_BUFFER_MISS:      25739  FULL:          0

