last_page:0x200000000000000
VMEM_RES_CAP:0x100000
PAGE_SIZE:4096
LOG2_PAGE_SIZE:12
LOG2_PAGE_TABLE_SIZE:9
page_table_levels:5
WARNING: physical memory size is smaller than virtual memory size
FDiP enabled with aggresivity 16

*** ChampSim Multicore Out-of-Order Simulator ***

Warmup Instructions: 50000000
Simulation Instructions: 100000000
Number of CPUs: 1
Small page size: 4096
Large page size: 2097152

CPU 0 Bimodal branch predictor
Basic BTB sets: 1024 ways: 8 indirect buffer size: 4096 RAS size: 64
Instruction page size distrubution: 0
Loading instruction page size distribution from /home/bsc/bsc018186/scratch/itp_asplos25_AE/dump/srv504_ap.pdst
Data page size distrubution: 0
Loading data page size distribution from /home/bsc/bsc018186/scratch/itp_asplos25_AE/dump/srv504_ap.pdst
cpu0_L2C IP-based stride prefetcher
cpu0_L1D next line prefetcher
cpu0_L1I next line prefetcher
Off-chip DRAM Size: 4 GiB Channels: 1 Width: 64-bit Data Rate: 3200 MT/s
Heartbeat CPU 0 instructions: 10000000 cycles: 2500438 heartbeat IPC: 3.9993 cumulative IPC: 3.9993 (Simulation time: 0 hr 0 min 34 sec) 
Heartbeat CPU 0 instructions: 20000003 cycles: 5002224 heartbeat IPC: 3.99715 cumulative IPC: 3.99823 (Simulation time: 0 hr 1 min 11 sec) 
Heartbeat CPU 0 instructions: 30000003 cycles: 7502293 heartbeat IPC: 3.99989 cumulative IPC: 3.99878 (Simulation time: 0 hr 1 min 48 sec) 
Heartbeat CPU 0 instructions: 40000001 cycles: 10002299 heartbeat IPC: 3.99999 cumulative IPC: 3.99909 (Simulation time: 0 hr 2 min 25 sec) 
Heartbeat CPU 0 instructions: 50000001 cycles: 12502371 heartbeat IPC: 3.99989 cumulative IPC: 3.99925 (Simulation time: 0 hr 3 min 3 sec) 
Warmup finished CPU 0 instructions: 50000001 cycles: 12502372 cumulative IPC: 3.99925 (Simulation time: 0 hr 3 min 3 sec) 

Warmup complete CPU 0 instructions: 50000001 cycles: 12502372 (Simulation time: 0 hr 3 min 3 sec) 

Heartbeat CPU 0 instructions: 60000002 cycles: 33013932 heartbeat IPC: 0.48753 cumulative IPC: 0.487531 (Simulation time: 0 hr 4 min 10 sec) 
Heartbeat CPU 0 instructions: 70000000 cycles: 53930049 heartbeat IPC: 0.478101 cumulative IPC: 0.48277 (Simulation time: 0 hr 5 min 17 sec) 
Heartbeat CPU 0 instructions: 80000000 cycles: 74100350 heartbeat IPC: 0.495779 cumulative IPC: 0.487029 (Simulation time: 0 hr 6 min 24 sec) 
Heartbeat CPU 0 instructions: 90000003 cycles: 94051194 heartbeat IPC: 0.501233 cumulative IPC: 0.490504 (Simulation time: 0 hr 7 min 30 sec) 
Heartbeat CPU 0 instructions: 100000000 cycles: 114201775 heartbeat IPC: 0.496264 cumulative IPC: 0.491645 (Simulation time: 0 hr 8 min 37 sec) 
*** Reached end of trace: /gpfs/projects/bsc18/MN4/bsc18/romol/ChampSim/traces/qualcomm_srv/srv504_ap.champsimtrace.xz
Heartbeat CPU 0 instructions: 110000004 cycles: 134395636 heartbeat IPC: 0.495201 cumulative IPC: 0.492234 (Simulation time: 0 hr 9 min 44 sec) 
Heartbeat CPU 0 instructions: 120000001 cycles: 155653739 heartbeat IPC: 0.470409 cumulative IPC: 0.488993 (Simulation time: 0 hr 10 min 53 sec) 
Heartbeat CPU 0 instructions: 130000004 cycles: 174953066 heartbeat IPC: 0.518153 cumulative IPC: 0.492458 (Simulation time: 0 hr 11 min 59 sec) 
Heartbeat CPU 0 instructions: 140000002 cycles: 195993425 heartbeat IPC: 0.475277 cumulative IPC: 0.490488 (Simulation time: 0 hr 13 min 7 sec) 
Heartbeat CPU 0 instructions: 150000003 cycles: 215949775 heartbeat IPC: 0.501094 cumulative IPC: 0.491528 (Simulation time: 0 hr 14 min 14 sec) 
Simulation finished CPU 0 instructions: 100000002 cycles: 203447404 cumulative IPC: 0.491528 (Simulation time: 0 hr 14 min 14 sec) 

Simulation complete CPU 0 instructions: 100000002 cycles: 203447404 (Simulation time: 0 hr 14 min 14 sec) 


ChampSim completed all CPUs

Saving instructions large page distribution to /home/bsc/bsc018186/scratch/itp_asplos25_AE/dump/srv504_ap.pdst...
Saving data large page distribution to /home/bsc/bsc018186/scratch/itp_asplos25_AE/dump/srv504_ap.pdst...
=== Simulation ===
CPU 0 runs /gpfs/projects/bsc18/MN4/bsc18/romol/ChampSim/traces/qualcomm_srv/srv504_ap.champsimtrace.xz

Region of Interest Statistics

CPU 0 cumulative IPC: 0.491528 instructions: 100000002 cycles: 203447404
CPU 0 Branch Prediction Accuracy: 80.3433% MPKI: 35.5672 Average ROB Occupancy at Mispredict: 10.8307
Branch type MPKI
BRANCH_DIRECT_JUMP: 1.31302
BRANCH_INDIRECT: 17.8997
BRANCH_CONDITIONAL: 11.5116
BRANCH_DIRECT_CALL: 2.4806
BRANCH_INDIRECT_CALL: 0.67004
BRANCH_RETURN: 1.6923

Instructions large pages: 0
Instructions small pages: 1177
Large page distribution for instructions: 0%

Data large pages: 0
Data small pages: 5330
Large page distribution for data: 0%

cpu0_L1I TOTAL       ACCESS:   36106707  HIT:   28089182  MISS:    8017525  iACCESS:   36106707  iHIT:   28089182  iMISS:    8017525  dACCESS:          0  dHIT:          0  dMISS:          0  itACCESS:          0  itHIT:          0  itMISS:          0  dtACCESS:          0  dtHIT:          0  dtMISS:          0
cpu0_L1I LOAD         ACCESS:   10565970  HIT:    8352590  MISS:    2213380  iACCESS:   10565970  iHIT:    8352590  iMISS:    2213380  dACCESS:          0  dHIT:          0  dMISS:          0  itACCESS:          0  itHIT:          0  itMISS:          0  dtACCESS:          0  dtHIT:          0  dtMISS:          0
cpu0_L1I RFO          ACCESS:          0  HIT:          0  MISS:          0  iACCESS:          0  iHIT:          0  iMISS:          0  dACCESS:          0  dHIT:          0  dMISS:          0  itACCESS:          0  itHIT:          0  itMISS:          0  dtACCESS:          0  dtHIT:          0  dtMISS:          0
cpu0_L1I PREFETCH     ACCESS:   25540737  HIT:   19736592  MISS:    5804145  iACCESS:   25540737  iHIT:   19736592  iMISS:    5804145  dACCESS:          0  dHIT:          0  dMISS:          0  itACCESS:          0  itHIT:          0  itMISS:          0  dtACCESS:          0  dtHIT:          0  dtMISS:          0
cpu0_L1I WRITE        ACCESS:          0  HIT:          0  MISS:          0  iACCESS:          0  iHIT:          0  iMISS:          0  dACCESS:          0  dHIT:          0  dMISS:          0  itACCESS:          0  itHIT:          0  itMISS:          0  dtACCESS:          0  dtHIT:          0  dtMISS:          0
cpu0_L1I TRANSLATION  ACCESS:          0  HIT:          0  MISS:          0  iACCESS:          0  iHIT:          0  iMISS:          0  dACCESS:          0  dHIT:          0  dMISS:          0  itACCESS:          0  itHIT:          0  itMISS:          0  dtACCESS:          0  dtHIT:          0  dtMISS:          0
cpu0_L1I PREFETCH  REQUESTED:   28104720  ISSUED:   28104670  CROSSED:          0  USEFUL:    2008796  USELESS:     660753
cpu0_L1I AVERAGE iMISS LATENCY: 18.8088 cycles
cpu0_L1I AVERAGE dMISS LATENCY: 0 cycles
cpu0_L1I AVERAGE itMISS LATENCY: 0 cycles
cpu0_L1I AVERAGE dtMISS LATENCY: 0 cycles
cpu0_L1I PAGE CROSSINGS (TLB HIT):         0 
cpu0_L1I PAGE CROSSINGS (TLB MISS):         0 
cpu0_L1I AVERAGE MISS LATENCY: 18.8088 cycles
cpu0_ITLB TOTAL       ACCESS:   30308499  HIT:   28340331  MISS:    1968168  iACCESS:   30308499  iHIT:   28340331  iMISS:    1968168  dACCESS:          0  dHIT:          0  dMISS:          0  itACCESS:          0  itHIT:          0  itMISS:          0  dtACCESS:          0  dtHIT:          0  dtMISS:          0
cpu0_ITLB LOAD         ACCESS:   30308499  HIT:   28340331  MISS:    1968168  iACCESS:   30308499  iHIT:   28340331  iMISS:    1968168  dACCESS:          0  dHIT:          0  dMISS:          0  itACCESS:          0  itHIT:          0  itMISS:          0  dtACCESS:          0  dtHIT:          0  dtMISS:          0
cpu0_ITLB RFO          ACCESS:          0  HIT:          0  MISS:          0  iACCESS:          0  iHIT:          0  iMISS:          0  dACCESS:          0  dHIT:          0  dMISS:          0  itACCESS:          0  itHIT:          0  itMISS:          0  dtACCESS:          0  dtHIT:          0  dtMISS:          0
cpu0_ITLB PREFETCH     ACCESS:          0  HIT:          0  MISS:          0  iACCESS:          0  iHIT:          0  iMISS:          0  dACCESS:          0  dHIT:          0  dMISS:          0  itACCESS:          0  itHIT:          0  itMISS:          0  dtACCESS:          0  dtHIT:          0  dtMISS:          0
cpu0_ITLB WRITE        ACCESS:          0  HIT:          0  MISS:          0  iACCESS:          0  iHIT:          0  iMISS:          0  dACCESS:          0  dHIT:          0  dMISS:          0  itACCESS:          0  itHIT:          0  itMISS:          0  dtACCESS:          0  dtHIT:          0  dtMISS:          0
cpu0_ITLB TRANSLATION  ACCESS:          0  HIT:          0  MISS:          0  iACCESS:          0  iHIT:          0  iMISS:          0  dACCESS:          0  dHIT:          0  dMISS:          0  itACCESS:          0  itHIT:          0  itMISS:          0  dtACCESS:          0  dtHIT:          0  dtMISS:          0
cpu0_ITLB PREFETCH  REQUESTED:          0  ISSUED:          0  CROSSED:          0  USEFUL:     329176  USELESS:      66835
cpu0_ITLB AVERAGE iMISS LATENCY: 7.44956 cycles
cpu0_ITLB AVERAGE dMISS LATENCY: 0 cycles
cpu0_ITLB AVERAGE itMISS LATENCY: 0 cycles
cpu0_ITLB AVERAGE dtMISS LATENCY: 0 cycles
cpu0_ITLB PAGE CROSSINGS (TLB HIT):         0 
cpu0_ITLB PAGE CROSSINGS (TLB MISS):         0 
cpu0_ITLB AVERAGE MISS LATENCY: 7.44956 cycles
cpu0_DTLB TOTAL       ACCESS:   27967492  HIT:   25874663  MISS:    2092829  iACCESS:          0  iHIT:          0  iMISS:          0  dACCESS:   27967492  dHIT:   25874663  dMISS:    2092829  itACCESS:          0  itHIT:          0  itMISS:          0  dtACCESS:          0  dtHIT:          0  dtMISS:          0
cpu0_DTLB LOAD         ACCESS:   27967492  HIT:   25874663  MISS:    2092829  iACCESS:          0  iHIT:          0  iMISS:          0  dACCESS:   27967492  dHIT:   25874663  dMISS:    2092829  itACCESS:          0  itHIT:          0  itMISS:          0  dtACCESS:          0  dtHIT:          0  dtMISS:          0
cpu0_DTLB RFO          ACCESS:          0  HIT:          0  MISS:          0  iACCESS:          0  iHIT:          0  iMISS:          0  dACCESS:          0  dHIT:          0  dMISS:          0  itACCESS:          0  itHIT:          0  itMISS:          0  dtACCESS:          0  dtHIT:          0  dtMISS:          0
cpu0_DTLB PREFETCH     ACCESS:          0  HIT:          0  MISS:          0  iACCESS:          0  iHIT:          0  iMISS:          0  dACCESS:          0  dHIT:          0  dMISS:          0  itACCESS:          0  itHIT:          0  itMISS:          0  dtACCESS:          0  dtHIT:          0  dtMISS:          0
cpu0_DTLB WRITE        ACCESS:          0  HIT:          0  MISS:          0  iACCESS:          0  iHIT:          0  iMISS:          0  dACCESS:          0  dHIT:          0  dMISS:          0  itACCESS:          0  itHIT:          0  itMISS:          0  dtACCESS:          0  dtHIT:          0  dtMISS:          0
cpu0_DTLB TRANSLATION  ACCESS:          0  HIT:          0  MISS:          0  iACCESS:          0  iHIT:          0  iMISS:          0  dACCESS:          0  dHIT:          0  dMISS:          0  itACCESS:          0  itHIT:          0  itMISS:          0  dtACCESS:          0  dtHIT:          0  dtMISS:          0
cpu0_DTLB PREFETCH  REQUESTED:          0  ISSUED:          0  CROSSED:          0  USEFUL:          0  USELESS:          0
cpu0_DTLB AVERAGE iMISS LATENCY: 0 cycles
cpu0_DTLB AVERAGE dMISS LATENCY: 18.5927 cycles
cpu0_DTLB AVERAGE itMISS LATENCY: 0 cycles
cpu0_DTLB AVERAGE dtMISS LATENCY: 0 cycles
cpu0_DTLB PAGE CROSSINGS (TLB HIT):         0 
cpu0_DTLB PAGE CROSSINGS (TLB MISS):         0 
cpu0_DTLB AVERAGE MISS LATENCY: 18.5927 cycles
cpu0_STLB TOTAL       ACCESS:    1619566  HIT:    1396953  MISS:     222613  iACCESS:     396009  iHIT:     310607  iMISS:      85402  dACCESS:    1223557  dHIT:    1086346  dMISS:     137211  itACCESS:          0  itHIT:          0  itMISS:          0  dtACCESS:          0  dtHIT:          0  dtMISS:          0
cpu0_STLB LOAD         ACCESS:    1619566  HIT:    1396953  MISS:     222613  iACCESS:     396009  iHIT:     310607  iMISS:      85402  dACCESS:    1223557  dHIT:    1086346  dMISS:     137211  itACCESS:          0  itHIT:          0  itMISS:          0  dtACCESS:          0  dtHIT:          0  dtMISS:          0
cpu0_STLB RFO          ACCESS:          0  HIT:          0  MISS:          0  iACCESS:          0  iHIT:          0  iMISS:          0  dACCESS:          0  dHIT:          0  dMISS:          0  itACCESS:          0  itHIT:          0  itMISS:          0  dtACCESS:          0  dtHIT:          0  dtMISS:          0
cpu0_STLB PREFETCH     ACCESS:          0  HIT:          0  MISS:          0  iACCESS:          0  iHIT:          0  iMISS:          0  dACCESS:          0  dHIT:          0  dMISS:          0  itACCESS:          0  itHIT:          0  itMISS:          0  dtACCESS:          0  dtHIT:          0  dtMISS:          0
cpu0_STLB WRITE        ACCESS:          0  HIT:          0  MISS:          0  iACCESS:          0  iHIT:          0  iMISS:          0  dACCESS:          0  dHIT:          0  dMISS:          0  itACCESS:          0  itHIT:          0  itMISS:          0  dtACCESS:          0  dtHIT:          0  dtMISS:          0
cpu0_STLB TRANSLATION  ACCESS:          0  HIT:          0  MISS:          0  iACCESS:          0  iHIT:          0  iMISS:          0  dACCESS:          0  dHIT:          0  dMISS:          0  itACCESS:          0  itHIT:          0  itMISS:          0  dtACCESS:          0  dtHIT:          0  dtMISS:          0
cpu0_STLB PREFETCH  REQUESTED:          0  ISSUED:          0  CROSSED:          0  USEFUL:          0  USELESS:          0
cpu0_STLB AVERAGE iMISS LATENCY: 51.6866 cycles
cpu0_STLB AVERAGE dMISS LATENCY: 130.935 cycles
cpu0_STLB AVERAGE itMISS LATENCY: 0 cycles
cpu0_STLB AVERAGE dtMISS LATENCY: 0 cycles
cpu0_STLB PAGE CROSSINGS (TLB HIT):         0 
cpu0_STLB PAGE CROSSINGS (TLB MISS):         0 
cpu0_STLB AVERAGE MISS LATENCY: 182.622 cycles
cpu0_L1D TOTAL       ACCESS:   43295400  HIT:   38527536  MISS:    4767864  iACCESS:          0  iHIT:          0  iMISS:          0  dACCESS:   43004323  dHIT:   38504261  dMISS:    4500062  itACCESS:      91188  itHIT:      12469  itMISS:      78719  dtACCESS:     199889  dtHIT:      10806  dtMISS:     189083
cpu0_L1D LOAD         ACCESS:   19642518  HIT:   17565074  MISS:    2077444  iACCESS:          0  iHIT:          0  iMISS:          0  dACCESS:   19642518  dHIT:   17565074  dMISS:    2077444  itACCESS:          0  itHIT:          0  itMISS:          0  dtACCESS:          0  dtHIT:          0  dtMISS:          0
cpu0_L1D RFO          ACCESS:          0  HIT:          0  MISS:          0  iACCESS:          0  iHIT:          0  iMISS:          0  dACCESS:          0  dHIT:          0  dMISS:          0  itACCESS:          0  itHIT:          0  itMISS:          0  dtACCESS:          0  dtHIT:          0  dtMISS:          0
cpu0_L1D PREFETCH     ACCESS:   13197428  HIT:   11236804  MISS:    1960624  iACCESS:          0  iHIT:          0  iMISS:          0  dACCESS:   13197428  dHIT:   11236804  dMISS:    1960624  itACCESS:          0  itHIT:          0  itMISS:          0  dtACCESS:          0  dtHIT:          0  dtMISS:          0
cpu0_L1D WRITE        ACCESS:   10164377  HIT:    9702383  MISS:     461994  iACCESS:          0  iHIT:          0  iMISS:          0  dACCESS:   10164377  dHIT:    9702383  dMISS:     461994  itACCESS:          0  itHIT:          0  itMISS:          0  dtACCESS:          0  dtHIT:          0  dtMISS:          0
cpu0_L1D TRANSLATION  ACCESS:     291077  HIT:      23275  MISS:     267802  iACCESS:          0  iHIT:          0  iMISS:          0  dACCESS:          0  dHIT:          0  dMISS:          0  itACCESS:      91188  itHIT:      12469  itMISS:      78719  dtACCESS:     199889  dtHIT:      10806  dtMISS:     189083
cpu0_L1D PREFETCH  REQUESTED:   19642518  ISSUED:   17456593  CROSSED:          0  USEFUL:     308914  USELESS:     706292
cpu0_L1D AVERAGE iMISS LATENCY: 0 cycles
cpu0_L1D AVERAGE dMISS LATENCY: 35.6132 cycles
cpu0_L1D AVERAGE itMISS LATENCY: 2.25788 cycles
cpu0_L1D AVERAGE dtMISS LATENCY: 5.69534 cycles
cpu0_L1D PAGE CROSSINGS (TLB HIT):         0 
cpu0_L1D PAGE CROSSINGS (TLB MISS):         0 
cpu0_L1D AVERAGE MISS LATENCY: 43.5664 cycles
cpu0_L2C TOTAL       ACCESS:    7341841  HIT:    3813325  MISS:    3528516  iACCESS:    3423362  iHIT:    2110475  iMISS:    1312887  dACCESS:    3666687  dHIT:    1665688  dMISS:    2000999  itACCESS:      78719  itHIT:      15991  itMISS:      62728  dtACCESS:     173073  dtHIT:      21171  dtMISS:     151902
cpu0_L2C LOAD         ACCESS:    1749652  HIT:     954481  MISS:     795171  iACCESS:     792167  iHIT:     521917  iMISS:     270250  dACCESS:     957485  dHIT:     432564  dMISS:     524921  itACCESS:          0  itHIT:          0  itMISS:          0  dtACCESS:          0  dtHIT:          0  dtMISS:          0
cpu0_L2C RFO          ACCESS:     163074  HIT:      64942  MISS:      98132  iACCESS:          0  iHIT:          0  iMISS:          0  dACCESS:     163074  dHIT:      64942  dMISS:      98132  itACCESS:          0  itHIT:          0  itMISS:          0  dtACCESS:          0  dtHIT:          0  dtMISS:          0
cpu0_L2C PREFETCH     ACCESS:    4897216  HIT:    2478240  MISS:    2418976  iACCESS:    2631195  iHIT:    1588558  iMISS:    1042637  dACCESS:    2266021  dHIT:     889682  dMISS:    1376339  itACCESS:          0  itHIT:          0  itMISS:          0  dtACCESS:          0  dtHIT:          0  dtMISS:          0
cpu0_L2C WRITE        ACCESS:     280107  HIT:     278500  MISS:       1607  iACCESS:          0  iHIT:          0  iMISS:          0  dACCESS:     280107  dHIT:     278500  dMISS:       1607  itACCESS:          0  itHIT:          0  itMISS:          0  dtACCESS:          0  dtHIT:          0  dtMISS:          0
cpu0_L2C TRANSLATION  ACCESS:     251792  HIT:      37162  MISS:     214630  iACCESS:          0  iHIT:          0  iMISS:          0  dACCESS:          0  dHIT:          0  dMISS:          0  itACCESS:      78719  itHIT:      15991  itMISS:      62728  dtACCESS:     173073  dtHIT:      21171  dtMISS:     151902
cpu0_L2C PREFETCH  REQUESTED:    1518796  ISSUED:    1518789  CROSSED:          0  USEFUL:     370182  USELESS:     295338
cpu0_L2C AVERAGE iMISS LATENCY: 34.1292 cycles
cpu0_L2C AVERAGE dMISS LATENCY: 61.5599 cycles
cpu0_L2C AVERAGE itMISS LATENCY: 2.83175 cycles
cpu0_L2C AVERAGE dtMISS LATENCY: 7.20832 cycles
cpu0_L2C PAGE CROSSINGS (TLB HIT):         0 
cpu0_L2C PAGE CROSSINGS (TLB MISS):         0 
cpu0_L2C AVERAGE MISS LATENCY: 105.73 cycles
LLC TOTAL       ACCESS:    3489838  HIT:    1579971  MISS:    1909867  iACCESS:    1233973  iHIT:     580987  iMISS:     652986  dACCESS:    2041235  dHIT:     953108  dMISS:    1088127  itACCESS:      62728  itHIT:      12982  itMISS:      49746  dtACCESS:     151902  dtHIT:      32894  dtMISS:     119008
LLC LOAD         ACCESS:     788499  HIT:     375694  MISS:     412805  iACCESS:     269047  iHIT:     131722  iMISS:     137325  dACCESS:     519452  dHIT:     243972  dMISS:     275480  itACCESS:          0  itHIT:          0  itMISS:          0  dtACCESS:          0  dtHIT:          0  dtMISS:          0
LLC RFO          ACCESS:      98129  HIT:      39565  MISS:      58564  iACCESS:          0  iHIT:          0  iMISS:          0  dACCESS:      98129  dHIT:      39565  dMISS:      58564  itACCESS:          0  itHIT:          0  itMISS:          0  dtACCESS:          0  dtHIT:          0  dtMISS:          0
LLC PREFETCH     ACCESS:    2242374  HIT:     980800  MISS:    1261574  iACCESS:     964926  iHIT:     449265  iMISS:     515661  dACCESS:    1277448  dHIT:     531535  dMISS:     745913  itACCESS:          0  itHIT:          0  itMISS:          0  dtACCESS:          0  dtHIT:          0  dtMISS:          0
LLC WRITE        ACCESS:     146206  HIT:     138036  MISS:       8170  iACCESS:          0  iHIT:          0  iMISS:          0  dACCESS:     146206  dHIT:     138036  dMISS:       8170  itACCESS:          0  itHIT:          0  itMISS:          0  dtACCESS:          0  dtHIT:          0  dtMISS:          0
LLC TRANSLATION  ACCESS:     214630  HIT:      45876  MISS:     168754  iACCESS:          0  iHIT:          0  iMISS:          0  dACCESS:          0  dHIT:          0  dMISS:          0  itACCESS:      62728  itHIT:      12982  itMISS:      49746  dtACCESS:     151902  dtHIT:      32894  dtMISS:     119008
LLC PREFETCH  REQUESTED:          0  ISSUED:          0  CROSSED:          0  USEFUL:          0  USELESS:          0
LLC AVERAGE iMISS LATENCY: 50.4196 cycles
LLC AVERAGE dMISS LATENCY: 95.689 cycles
LLC AVERAGE itMISS LATENCY: 4.58388 cycles
LLC AVERAGE dtMISS LATENCY: 11.7513 cycles
LLC PAGE CROSSINGS (TLB HIT):         0 
LLC PAGE CROSSINGS (TLB MISS):         0 
LLC AVERAGE MISS LATENCY: 162.444 cycles

PageTableWalker TOTAL       ACCESS:     113220  
PageTableWalker AVERAGE LATENCY: 5.07535 cycles
PageTableWalker TOTAL LATENCY: 574631 cycles

DRAM Statistics
Channel 0
 RQ ROW_BUFFER_HIT:     517508
  ROW_BUFFER_MISS:    1363551
 AVG DBUS CONGESTED CYCLE:    3.63286
 WQ ROW_BUFFER_HIT:      37223
  ROW_BUFFER_MISS:      25731  FULL:          0

