last_page:0x200000000000000
VMEM_RES_CAP:0x100000
PAGE_SIZE:4096
LOG2_PAGE_SIZE:12
LOG2_PAGE_TABLE_SIZE:9
page_table_levels:5
WARNING: physical memory size is smaller than virtual memory size
FDiP enabled with aggresivity 16

*** ChampSim Multicore Out-of-Order Simulator ***

Warmup Instructions: 50000000
Simulation Instructions: 100000000
Number of CPUs: 1
Small page size: 4096
Large page size: 2097152

CPU 0 Bimodal branch predictor
Basic BTB sets: 1024 ways: 8 indirect buffer size: 4096 RAS size: 64
Instruction page size distrubution: 0
Loading instruction page size distribution from /home/bsc/bsc018186/scratch/itp_asplos25_AE/dump/srv506_ap.pdst
Data page size distrubution: 0
Loading data page size distribution from /home/bsc/bsc018186/scratch/itp_asplos25_AE/dump/srv506_ap.pdst
cpu0_L2C IP-based stride prefetcher
cpu0_L1D next line prefetcher
CHiRPing...
cpu0_L1I next line prefetcher
Off-chip DRAM Size: 4 GiB Channels: 1 Width: 64-bit Data Rate: 3200 MT/s
Heartbeat CPU 0 instructions: 10000002 cycles: 2500128 heartbeat IPC: 3.9998 cumulative IPC: 3.9998 (Simulation time: 0 hr 0 min 39 sec) 
Heartbeat CPU 0 instructions: 20000000 cycles: 5000185 heartbeat IPC: 3.99991 cumulative IPC: 3.99986 (Simulation time: 0 hr 1 min 19 sec) 
Heartbeat CPU 0 instructions: 30000001 cycles: 7500228 heartbeat IPC: 3.99994 cumulative IPC: 3.99988 (Simulation time: 0 hr 1 min 59 sec) 
Heartbeat CPU 0 instructions: 40000003 cycles: 10000251 heartbeat IPC: 3.99997 cumulative IPC: 3.9999 (Simulation time: 0 hr 2 min 40 sec) 
Heartbeat CPU 0 instructions: 50000003 cycles: 12500268 heartbeat IPC: 3.99998 cumulative IPC: 3.99992 (Simulation time: 0 hr 3 min 21 sec) 
Warmup finished CPU 0 instructions: 50000003 cycles: 12500269 cumulative IPC: 3.99992 (Simulation time: 0 hr 3 min 21 sec) 

Warmup complete CPU 0 instructions: 50000003 cycles: 12500269 (Simulation time: 0 hr 3 min 21 sec) 

Heartbeat CPU 0 instructions: 60000003 cycles: 28444110 heartbeat IPC: 0.627202 cumulative IPC: 0.627202 (Simulation time: 0 hr 4 min 27 sec) 
Heartbeat CPU 0 instructions: 70000001 cycles: 44445959 heartbeat IPC: 0.624928 cumulative IPC: 0.626063 (Simulation time: 0 hr 5 min 34 sec) 
Heartbeat CPU 0 instructions: 80000001 cycles: 61225626 heartbeat IPC: 0.59596 cumulative IPC: 0.615696 (Simulation time: 0 hr 6 min 43 sec) 
Heartbeat CPU 0 instructions: 90000001 cycles: 76794773 heartbeat IPC: 0.642296 cumulative IPC: 0.622138 (Simulation time: 0 hr 7 min 51 sec) 
Heartbeat CPU 0 instructions: 100000003 cycles: 92633991 heartbeat IPC: 0.631345 cumulative IPC: 0.623958 (Simulation time: 0 hr 8 min 59 sec) 
*** Reached end of trace: /gpfs/projects/bsc18/MN4/bsc18/romol/ChampSim/traces/qualcomm_srv/srv506_ap.champsimtrace.xz
Heartbeat CPU 0 instructions: 110000001 cycles: 108666639 heartbeat IPC: 0.623728 cumulative IPC: 0.623919 (Simulation time: 0 hr 10 min 8 sec) 
Heartbeat CPU 0 instructions: 120000003 cycles: 124440635 heartbeat IPC: 0.633955 cumulative IPC: 0.625333 (Simulation time: 0 hr 11 min 16 sec) 
Heartbeat CPU 0 instructions: 130000000 cycles: 139900613 heartbeat IPC: 0.646832 cumulative IPC: 0.627942 (Simulation time: 0 hr 12 min 24 sec) 
Heartbeat CPU 0 instructions: 140000002 cycles: 154856933 heartbeat IPC: 0.668614 cumulative IPC: 0.632215 (Simulation time: 0 hr 13 min 31 sec) 
Heartbeat CPU 0 instructions: 150000000 cycles: 171166602 heartbeat IPC: 0.613134 cumulative IPC: 0.630254 (Simulation time: 0 hr 14 min 41 sec) 
Simulation finished CPU 0 instructions: 100000002 cycles: 158666336 cumulative IPC: 0.630254 (Simulation time: 0 hr 14 min 41 sec) 

Simulation complete CPU 0 instructions: 100000002 cycles: 158666336 (Simulation time: 0 hr 14 min 41 sec) 


ChampSim completed all CPUs

Saving instructions large page distribution to /home/bsc/bsc018186/scratch/itp_asplos25_AE/dump/srv506_ap.pdst...
Saving data large page distribution to /home/bsc/bsc018186/scratch/itp_asplos25_AE/dump/srv506_ap.pdst...
=== Simulation ===
CPU 0 runs /gpfs/projects/bsc18/MN4/bsc18/romol/ChampSim/traces/qualcomm_srv/srv506_ap.champsimtrace.xz

Region of Interest Statistics

CPU 0 cumulative IPC: 0.630254 instructions: 100000002 cycles: 158666336
CPU 0 Branch Prediction Accuracy: 82.859% MPKI: 30.6843 Average ROB Occupancy at Mispredict: 12.4645
Branch type MPKI
BRANCH_DIRECT_JUMP: 1.0352
BRANCH_INDIRECT: 15.6921
BRANCH_CONDITIONAL: 10.1968
BRANCH_DIRECT_CALL: 1.88252
BRANCH_INDIRECT_CALL: 0.53029
BRANCH_RETURN: 1.34747

Instructions large pages: 0
Instructions small pages: 1084
Large page distribution for instructions: 0%

Data large pages: 0
Data small pages: 9900
Large page distribution for data: 0%

cpu0_L1I TOTAL       ACCESS:   35072932  HIT:   27209699  MISS:    7863233  iACCESS:   35072932  iHIT:   27209699  iMISS:    7863233  dACCESS:          0  dHIT:          0  dMISS:          0  itACCESS:          0  itHIT:          0  itMISS:          0  dtACCESS:          0  dtHIT:          0  dtMISS:          0
cpu0_L1I LOAD         ACCESS:   10285343  HIT:    8074801  MISS:    2210542  iACCESS:   10285343  iHIT:    8074801  iMISS:    2210542  dACCESS:          0  dHIT:          0  dMISS:          0  itACCESS:          0  itHIT:          0  itMISS:          0  dtACCESS:          0  dtHIT:          0  dtMISS:          0
cpu0_L1I RFO          ACCESS:          0  HIT:          0  MISS:          0  iACCESS:          0  iHIT:          0  iMISS:          0  dACCESS:          0  dHIT:          0  dMISS:          0  itACCESS:          0  itHIT:          0  itMISS:          0  dtACCESS:          0  dtHIT:          0  dtMISS:          0
cpu0_L1I PREFETCH     ACCESS:   24787589  HIT:   19134898  MISS:    5652691  iACCESS:   24787589  iHIT:   19134898  iMISS:    5652691  dACCESS:          0  dHIT:          0  dMISS:          0  itACCESS:          0  itHIT:          0  itMISS:          0  dtACCESS:          0  dtHIT:          0  dtMISS:          0
cpu0_L1I WRITE        ACCESS:          0  HIT:          0  MISS:          0  iACCESS:          0  iHIT:          0  iMISS:          0  dACCESS:          0  dHIT:          0  dMISS:          0  itACCESS:          0  itHIT:          0  itMISS:          0  dtACCESS:          0  dtHIT:          0  dtMISS:          0
cpu0_L1I TRANSLATION  ACCESS:          0  HIT:          0  MISS:          0  iACCESS:          0  iHIT:          0  iMISS:          0  dACCESS:          0  dHIT:          0  dMISS:          0  itACCESS:          0  itHIT:          0  itMISS:          0  dtACCESS:          0  dtHIT:          0  dtMISS:          0
cpu0_L1I PREFETCH  REQUESTED:   27328789  ISSUED:   27328788  CROSSED:          0  USEFUL:    1933266  USELESS:     630169
cpu0_L1I AVERAGE iMISS LATENCY: 13.4269 cycles
cpu0_L1I AVERAGE dMISS LATENCY: 0 cycles
cpu0_L1I AVERAGE itMISS LATENCY: 0 cycles
cpu0_L1I AVERAGE dtMISS LATENCY: 0 cycles
cpu0_L1I PAGE CROSSINGS (TLB HIT):         0 
cpu0_L1I PAGE CROSSINGS (TLB MISS):         0 
cpu0_L1I AVERAGE MISS LATENCY: 13.4269 cycles
cpu0_ITLB TOTAL       ACCESS:   29298061  HIT:   27345977  MISS:    1952084  iACCESS:   29298061  iHIT:   27345977  iMISS:    1952084  dACCESS:          0  dHIT:          0  dMISS:          0  itACCESS:          0  itHIT:          0  itMISS:          0  dtACCESS:          0  dtHIT:          0  dtMISS:          0
cpu0_ITLB LOAD         ACCESS:   29298061  HIT:   27345977  MISS:    1952084  iACCESS:   29298061  iHIT:   27345977  iMISS:    1952084  dACCESS:          0  dHIT:          0  dMISS:          0  itACCESS:          0  itHIT:          0  itMISS:          0  dtACCESS:          0  dtHIT:          0  dtMISS:          0
cpu0_ITLB RFO          ACCESS:          0  HIT:          0  MISS:          0  iACCESS:          0  iHIT:          0  iMISS:          0  dACCESS:          0  dHIT:          0  dMISS:          0  itACCESS:          0  itHIT:          0  itMISS:          0  dtACCESS:          0  dtHIT:          0  dtMISS:          0
cpu0_ITLB PREFETCH     ACCESS:          0  HIT:          0  MISS:          0  iACCESS:          0  iHIT:          0  iMISS:          0  dACCESS:          0  dHIT:          0  dMISS:          0  itACCESS:          0  itHIT:          0  itMISS:          0  dtACCESS:          0  dtHIT:          0  dtMISS:          0
cpu0_ITLB WRITE        ACCESS:          0  HIT:          0  MISS:          0  iACCESS:          0  iHIT:          0  iMISS:          0  dACCESS:          0  dHIT:          0  dMISS:          0  itACCESS:          0  itHIT:          0  itMISS:          0  dtACCESS:          0  dtHIT:          0  dtMISS:          0
cpu0_ITLB TRANSLATION  ACCESS:          0  HIT:          0  MISS:          0  iACCESS:          0  iHIT:          0  iMISS:          0  dACCESS:          0  dHIT:          0  dMISS:          0  itACCESS:          0  itHIT:          0  itMISS:          0  dtACCESS:          0  dtHIT:          0  dtMISS:          0
cpu0_ITLB PREFETCH  REQUESTED:          0  ISSUED:          0  CROSSED:          0  USEFUL:     316457  USELESS:      64882
cpu0_ITLB AVERAGE iMISS LATENCY: 5.3857 cycles
cpu0_ITLB AVERAGE dMISS LATENCY: 0 cycles
cpu0_ITLB AVERAGE itMISS LATENCY: 0 cycles
cpu0_ITLB AVERAGE dtMISS LATENCY: 0 cycles
cpu0_ITLB PAGE CROSSINGS (TLB HIT):         0 
cpu0_ITLB PAGE CROSSINGS (TLB MISS):         0 
cpu0_ITLB AVERAGE MISS LATENCY: 5.3857 cycles
cpu0_DTLB TOTAL       ACCESS:   27731998  HIT:   25685838  MISS:    2046160  iACCESS:          0  iHIT:          0  iMISS:          0  dACCESS:   27731998  dHIT:   25685838  dMISS:    2046160  itACCESS:          0  itHIT:          0  itMISS:          0  dtACCESS:          0  dtHIT:          0  dtMISS:          0
cpu0_DTLB LOAD         ACCESS:   27731998  HIT:   25685838  MISS:    2046160  iACCESS:          0  iHIT:          0  iMISS:          0  dACCESS:   27731998  dHIT:   25685838  dMISS:    2046160  itACCESS:          0  itHIT:          0  itMISS:          0  dtACCESS:          0  dtHIT:          0  dtMISS:          0
cpu0_DTLB RFO          ACCESS:          0  HIT:          0  MISS:          0  iACCESS:          0  iHIT:          0  iMISS:          0  dACCESS:          0  dHIT:          0  dMISS:          0  itACCESS:          0  itHIT:          0  itMISS:          0  dtACCESS:          0  dtHIT:          0  dtMISS:          0
cpu0_DTLB PREFETCH     ACCESS:          0  HIT:          0  MISS:          0  iACCESS:          0  iHIT:          0  iMISS:          0  dACCESS:          0  dHIT:          0  dMISS:          0  itACCESS:          0  itHIT:          0  itMISS:          0  dtACCESS:          0  dtHIT:          0  dtMISS:          0
cpu0_DTLB WRITE        ACCESS:          0  HIT:          0  MISS:          0  iACCESS:          0  iHIT:          0  iMISS:          0  dACCESS:          0  dHIT:          0  dMISS:          0  itACCESS:          0  itHIT:          0  itMISS:          0  dtACCESS:          0  dtHIT:          0  dtMISS:          0
cpu0_DTLB TRANSLATION  ACCESS:          0  HIT:          0  MISS:          0  iACCESS:          0  iHIT:          0  iMISS:          0  dACCESS:          0  dHIT:          0  dMISS:          0  itACCESS:          0  itHIT:          0  itMISS:          0  dtACCESS:          0  dtHIT:          0  dtMISS:          0
cpu0_DTLB PREFETCH  REQUESTED:          0  ISSUED:          0  CROSSED:          0  USEFUL:          0  USELESS:          0
cpu0_DTLB AVERAGE iMISS LATENCY: 0 cycles
cpu0_DTLB AVERAGE dMISS LATENCY: 15.6682 cycles
cpu0_DTLB AVERAGE itMISS LATENCY: 0 cycles
cpu0_DTLB AVERAGE dtMISS LATENCY: 0 cycles
cpu0_DTLB PAGE CROSSINGS (TLB HIT):         0 
cpu0_DTLB PAGE CROSSINGS (TLB MISS):         0 
cpu0_DTLB AVERAGE MISS LATENCY: 15.6682 cycles
cpu0_STLB TOTAL       ACCESS:    1628879  HIT:    1459345  MISS:     169534  iACCESS:     381355  iHIT:     322303  iMISS:      59052  dACCESS:    1247524  dHIT:    1137042  dMISS:     110482  itACCESS:          0  itHIT:          0  itMISS:          0  dtACCESS:          0  dtHIT:          0  dtMISS:          0
cpu0_STLB LOAD         ACCESS:    1628879  HIT:    1459345  MISS:     169534  iACCESS:     381355  iHIT:     322303  iMISS:      59052  dACCESS:    1247524  dHIT:    1137042  dMISS:     110482  itACCESS:          0  itHIT:          0  itMISS:          0  dtACCESS:          0  dtHIT:          0  dtMISS:          0
cpu0_STLB RFO          ACCESS:          0  HIT:          0  MISS:          0  iACCESS:          0  iHIT:          0  iMISS:          0  dACCESS:          0  dHIT:          0  dMISS:          0  itACCESS:          0  itHIT:          0  itMISS:          0  dtACCESS:          0  dtHIT:          0  dtMISS:          0
cpu0_STLB PREFETCH     ACCESS:          0  HIT:          0  MISS:          0  iACCESS:          0  iHIT:          0  iMISS:          0  dACCESS:          0  dHIT:          0  dMISS:          0  itACCESS:          0  itHIT:          0  itMISS:          0  dtACCESS:          0  dtHIT:          0  dtMISS:          0
cpu0_STLB WRITE        ACCESS:          0  HIT:          0  MISS:          0  iACCESS:          0  iHIT:          0  iMISS:          0  dACCESS:          0  dHIT:          0  dMISS:          0  itACCESS:          0  itHIT:          0  itMISS:          0  dtACCESS:          0  dtHIT:          0  dtMISS:          0
cpu0_STLB TRANSLATION  ACCESS:          0  HIT:          0  MISS:          0  iACCESS:          0  iHIT:          0  iMISS:          0  dACCESS:          0  dHIT:          0  dMISS:          0  itACCESS:          0  itHIT:          0  itMISS:          0  dtACCESS:          0  dtHIT:          0  dtMISS:          0
cpu0_STLB PREFETCH  REQUESTED:          0  ISSUED:          0  CROSSED:          0  USEFUL:          0  USELESS:          0
cpu0_STLB AVERAGE iMISS LATENCY: 44.2258 cycles
cpu0_STLB AVERAGE dMISS LATENCY: 130.445 cycles
cpu0_STLB AVERAGE itMISS LATENCY: 0 cycles
cpu0_STLB AVERAGE dtMISS LATENCY: 0 cycles
cpu0_STLB PAGE CROSSINGS (TLB HIT):         0 
cpu0_STLB PAGE CROSSINGS (TLB MISS):         0 
cpu0_STLB AVERAGE MISS LATENCY: 174.671 cycles
cpu0_L1D TOTAL       ACCESS:   41548091  HIT:   38030406  MISS:    3517685  iACCESS:          0  iHIT:          0  iMISS:          0  dACCESS:   41317749  dHIT:   38010237  dMISS:    3307512  itACCESS:      64158  itHIT:       9423  itMISS:      54735  dtACCESS:     166184  dtHIT:      10746  dtMISS:     155438
cpu0_L1D LOAD         ACCESS:   18952166  HIT:   17438584  MISS:    1513582  iACCESS:          0  iHIT:          0  iMISS:          0  dACCESS:   18952166  dHIT:   17438584  dMISS:    1513582  itACCESS:          0  itHIT:          0  itMISS:          0  dtACCESS:          0  dtHIT:          0  dtMISS:          0
cpu0_L1D RFO          ACCESS:          0  HIT:          0  MISS:          0  iACCESS:          0  iHIT:          0  iMISS:          0  dACCESS:          0  dHIT:          0  dMISS:          0  itACCESS:          0  itHIT:          0  itMISS:          0  dtACCESS:          0  dtHIT:          0  dtMISS:          0
cpu0_L1D PREFETCH     ACCESS:   12168999  HIT:   10807392  MISS:    1361607  iACCESS:          0  iHIT:          0  iMISS:          0  dACCESS:   12168999  dHIT:   10807392  dMISS:    1361607  itACCESS:          0  itHIT:          0  itMISS:          0  dtACCESS:          0  dtHIT:          0  dtMISS:          0
cpu0_L1D WRITE        ACCESS:   10196584  HIT:    9764261  MISS:     432323  iACCESS:          0  iHIT:          0  iMISS:          0  dACCESS:   10196584  dHIT:    9764261  dMISS:     432323  itACCESS:          0  itHIT:          0  itMISS:          0  dtACCESS:          0  dtHIT:          0  dtMISS:          0
cpu0_L1D TRANSLATION  ACCESS:     230342  HIT:      20169  MISS:     210173  iACCESS:          0  iHIT:          0  iMISS:          0  dACCESS:          0  dHIT:          0  dMISS:          0  itACCESS:      64158  itHIT:       9423  itMISS:      54735  dtACCESS:     166184  dtHIT:      10746  dtMISS:     155438
cpu0_L1D PREFETCH  REQUESTED:   18952166  ISSUED:   16963552  CROSSED:          0  USEFUL:     304902  USELESS:     701969
cpu0_L1D AVERAGE iMISS LATENCY: 0 cycles
cpu0_L1D AVERAGE dMISS LATENCY: 33.8519 cycles
cpu0_L1D AVERAGE itMISS LATENCY: 1.9812 cycles
cpu0_L1D AVERAGE dtMISS LATENCY: 5.60865 cycles
cpu0_L1D PAGE CROSSINGS (TLB HIT):         0 
cpu0_L1D PAGE CROSSINGS (TLB MISS):         0 
cpu0_L1D AVERAGE MISS LATENCY: 41.4417 cycles
cpu0_L2C TOTAL       ACCESS:    7006571  HIT:    4081033  MISS:    2925538  iACCESS:    3313935  iHIT:    2238108  iMISS:    1075827  dACCESS:    3491571  dHIT:    1815035  dMISS:    1676536  itACCESS:      54735  itHIT:       9415  itMISS:      45320  dtACCESS:     146330  dtHIT:      18475  dtMISS:     127855
cpu0_L2C LOAD         ACCESS:    1722052  HIT:    1047607  MISS:     674445  iACCESS:     789578  iHIT:     561123  iMISS:     228455  dACCESS:     932474  dHIT:     486484  dMISS:     445990  itACCESS:          0  itHIT:          0  itMISS:          0  dtACCESS:          0  dtHIT:          0  dtMISS:          0
cpu0_L2C RFO          ACCESS:     159025  HIT:      72930  MISS:      86095  iACCESS:          0  iHIT:          0  iMISS:          0  dACCESS:     159025  dHIT:      72930  dMISS:      86095  itACCESS:          0  itHIT:          0  itMISS:          0  dtACCESS:          0  dtHIT:          0  dtMISS:          0
cpu0_L2C PREFETCH     ACCESS:    4642194  HIT:    2651492  MISS:    1990702  iACCESS:    2524357  iHIT:    1676985  iMISS:     847372  dACCESS:    2117837  dHIT:     974507  dMISS:    1143330  itACCESS:          0  itHIT:          0  itMISS:          0  dtACCESS:          0  dtHIT:          0  dtMISS:          0
cpu0_L2C WRITE        ACCESS:     282235  HIT:     281114  MISS:       1121  iACCESS:          0  iHIT:          0  iMISS:          0  dACCESS:     282235  dHIT:     281114  dMISS:       1121  itACCESS:          0  itHIT:          0  itMISS:          0  dtACCESS:          0  dtHIT:          0  dtMISS:          0
cpu0_L2C TRANSLATION  ACCESS:     201065  HIT:      27890  MISS:     173175  iACCESS:          0  iHIT:          0  iMISS:          0  dACCESS:          0  dHIT:          0  dMISS:          0  itACCESS:      54735  itHIT:       9415  itMISS:      45320  dtACCESS:     146330  dtHIT:      18475  dtMISS:     127855
cpu0_L2C PREFETCH  REQUESTED:    1367636  ISSUED:    1367545  CROSSED:          0  USEFUL:     326653  USELESS:     232250
cpu0_L2C AVERAGE iMISS LATENCY: 25.8119 cycles
cpu0_L2C AVERAGE dMISS LATENCY: 48.615 cycles
cpu0_L2C AVERAGE itMISS LATENCY: 2.19776 cycles
cpu0_L2C AVERAGE dtMISS LATENCY: 6.24617 cycles
cpu0_L2C PAGE CROSSINGS (TLB HIT):         0 
cpu0_L2C PAGE CROSSINGS (TLB MISS):         0 
cpu0_L2C AVERAGE MISS LATENCY: 82.8708 cycles
LLC TOTAL       ACCESS:    2940154  HIT:    1753808  MISS:    1186346  iACCESS:    1017644  iHIT:     639650  iMISS:     377994  dACCESS:    1749335  dHIT:    1059584  dMISS:     689751  itACCESS:      45320  itHIT:      13167  itMISS:      32153  dtACCESS:     127855  dtHIT:      41407  dtMISS:      86448
LLC LOAD         ACCESS:     672227  HIT:     418204  MISS:     254023  iACCESS:     227233  iHIT:     146449  iMISS:      80784  dACCESS:     444994  dHIT:     271755  dMISS:     173239  itACCESS:          0  itHIT:          0  itMISS:          0  dtACCESS:          0  dtHIT:          0  dtMISS:          0
LLC RFO          ACCESS:      86086  HIT:      45406  MISS:      40680  iACCESS:          0  iHIT:          0  iMISS:          0  dACCESS:      86086  dHIT:      45406  dMISS:      40680  itACCESS:          0  itHIT:          0  itMISS:          0  dtACCESS:          0  dtHIT:          0  dtMISS:          0
LLC PREFETCH     ACCESS:    1875213  HIT:    1109804  MISS:     765409  iACCESS:     790411  iHIT:     493201  iMISS:     297210  dACCESS:    1084802  dHIT:     616603  dMISS:     468199  itACCESS:          0  itHIT:          0  itMISS:          0  dtACCESS:          0  dtHIT:          0  dtMISS:          0
LLC WRITE        ACCESS:     133453  HIT:     125820  MISS:       7633  iACCESS:          0  iHIT:          0  iMISS:          0  dACCESS:     133453  dHIT:     125820  dMISS:       7633  itACCESS:          0  itHIT:          0  itMISS:          0  dtACCESS:          0  dtHIT:          0  dtMISS:          0
LLC TRANSLATION  ACCESS:     173175  HIT:      54574  MISS:     118601  iACCESS:          0  iHIT:          0  iMISS:          0  dACCESS:          0  dHIT:          0  dMISS:          0  itACCESS:      45320  itHIT:      13167  itMISS:      32153  dtACCESS:     127855  dtHIT:      41407  dtMISS:      86448
LLC PREFETCH  REQUESTED:          0  ISSUED:          0  CROSSED:          0  USEFUL:          0  USELESS:          0
LLC AVERAGE iMISS LATENCY: 46.9518 cycles
LLC AVERAGE dMISS LATENCY: 93.6393 cycles
LLC AVERAGE itMISS LATENCY: 4.66885 cycles
LLC AVERAGE dtMISS LATENCY: 13.2897 cycles
LLC PAGE CROSSINGS (TLB HIT):         0 
LLC PAGE CROSSINGS (TLB MISS):         0 
LLC AVERAGE MISS LATENCY: 158.55 cycles

PageTableWalker TOTAL       ACCESS:      85439  
PageTableWalker AVERAGE LATENCY: 5.28193 cycles
PageTableWalker TOTAL LATENCY: 451282 cycles

DRAM Statistics
Channel 0
 RQ ROW_BUFFER_HIT:     316377
  ROW_BUFFER_MISS:     861646
 AVG DBUS CONGESTED CYCLE:    3.63022
 WQ ROW_BUFFER_HIT:      22768
  ROW_BUFFER_MISS:      21159  FULL:          0

