last_page:0x200000000000000
VMEM_RES_CAP:0x100000
PAGE_SIZE:4096
LOG2_PAGE_SIZE:12
LOG2_PAGE_TABLE_SIZE:9
page_table_levels:5
WARNING: physical memory size is smaller than virtual memory size
FDiP enabled with aggresivity 16

*** ChampSim Multicore Out-of-Order Simulator ***

Warmup Instructions: 50000000
Simulation Instructions: 100000000
Number of CPUs: 1
Small page size: 4096
Large page size: 2097152

CPU 0 Bimodal branch predictor
Basic BTB sets: 1024 ways: 8 indirect buffer size: 4096 RAS size: 64
Instruction page size distrubution: 0
Loading instruction page size distribution from /home/bsc/bsc018186/scratch/itp_asplos25_AE/dump/srv537_ap.pdst
Data page size distrubution: 0
Loading data page size distribution from /home/bsc/bsc018186/scratch/itp_asplos25_AE/dump/srv537_ap.pdst
cpu0_L2C IP-based stride prefetcher
cpu0_L1D next line prefetcher
cpu0_L1I next line prefetcher
Off-chip DRAM Size: 4 GiB Channels: 1 Width: 64-bit Data Rate: 3200 MT/s
Heartbeat CPU 0 instructions: 10000001 cycles: 2500311 heartbeat IPC: 3.99951 cumulative IPC: 3.99951 (Simulation time: 0 hr 0 min 34 sec) 
Heartbeat CPU 0 instructions: 20000002 cycles: 5000434 heartbeat IPC: 3.99981 cumulative IPC: 3.99966 (Simulation time: 0 hr 1 min 11 sec) 
Heartbeat CPU 0 instructions: 30000002 cycles: 7502291 heartbeat IPC: 3.99704 cumulative IPC: 3.99878 (Simulation time: 0 hr 1 min 48 sec) 
Heartbeat CPU 0 instructions: 40000002 cycles: 10002410 heartbeat IPC: 3.99981 cumulative IPC: 3.99904 (Simulation time: 0 hr 2 min 25 sec) 
Heartbeat CPU 0 instructions: 50000003 cycles: 12502484 heartbeat IPC: 3.99989 cumulative IPC: 3.99921 (Simulation time: 0 hr 3 min 2 sec) 
Warmup finished CPU 0 instructions: 50000003 cycles: 12502485 cumulative IPC: 3.99921 (Simulation time: 0 hr 3 min 2 sec) 

Warmup complete CPU 0 instructions: 50000003 cycles: 12502485 (Simulation time: 0 hr 3 min 2 sec) 

Heartbeat CPU 0 instructions: 60000001 cycles: 33808367 heartbeat IPC: 0.469354 cumulative IPC: 0.469354 (Simulation time: 0 hr 4 min 10 sec) 
Heartbeat CPU 0 instructions: 70000004 cycles: 53777382 heartbeat IPC: 0.500776 cumulative IPC: 0.484557 (Simulation time: 0 hr 5 min 16 sec) 
Heartbeat CPU 0 instructions: 80000000 cycles: 76192895 heartbeat IPC: 0.44612 cumulative IPC: 0.471029 (Simulation time: 0 hr 6 min 26 sec) 
Heartbeat CPU 0 instructions: 90000004 cycles: 97127511 heartbeat IPC: 0.477678 cumulative IPC: 0.472674 (Simulation time: 0 hr 7 min 34 sec) 
Heartbeat CPU 0 instructions: 100000001 cycles: 118709476 heartbeat IPC: 0.46335 cumulative IPC: 0.470779 (Simulation time: 0 hr 8 min 42 sec) 
*** Reached end of trace: /gpfs/projects/bsc18/MN4/bsc18/romol/ChampSim/traces/qualcomm_srv/srv537_ap.champsimtrace.xz
Heartbeat CPU 0 instructions: 110000002 cycles: 139279053 heartbeat IPC: 0.486155 cumulative IPC: 0.473274 (Simulation time: 0 hr 9 min 49 sec) 
Heartbeat CPU 0 instructions: 120000003 cycles: 159889720 heartbeat IPC: 0.485186 cumulative IPC: 0.47494 (Simulation time: 0 hr 10 min 56 sec) 
Heartbeat CPU 0 instructions: 130000001 cycles: 181190668 heartbeat IPC: 0.469463 cumulative IPC: 0.474248 (Simulation time: 0 hr 12 min 5 sec) 
Heartbeat CPU 0 instructions: 140000001 cycles: 202860836 heartbeat IPC: 0.461464 cumulative IPC: 0.472793 (Simulation time: 0 hr 13 min 13 sec) 
Heartbeat CPU 0 instructions: 150000001 cycles: 223659850 heartbeat IPC: 0.480793 cumulative IPC: 0.473581 (Simulation time: 0 hr 14 min 21 sec) 
Simulation finished CPU 0 instructions: 100000001 cycles: 211157367 cumulative IPC: 0.473581 (Simulation time: 0 hr 14 min 21 sec) 

Simulation complete CPU 0 instructions: 100000001 cycles: 211157367 (Simulation time: 0 hr 14 min 21 sec) 


ChampSim completed all CPUs

Saving instructions large page distribution to /home/bsc/bsc018186/scratch/itp_asplos25_AE/dump/srv537_ap.pdst...
Saving data large page distribution to /home/bsc/bsc018186/scratch/itp_asplos25_AE/dump/srv537_ap.pdst...
=== Simulation ===
CPU 0 runs /gpfs/projects/bsc18/MN4/bsc18/romol/ChampSim/traces/qualcomm_srv/srv537_ap.champsimtrace.xz

Region of Interest Statistics

CPU 0 cumulative IPC: 0.473581 instructions: 100000001 cycles: 211157367
CPU 0 Branch Prediction Accuracy: 80.1094% MPKI: 35.9059 Average ROB Occupancy at Mispredict: 10.6193
Branch type MPKI
BRANCH_DIRECT_JUMP: 1.34792
BRANCH_INDIRECT: 18.177
BRANCH_CONDITIONAL: 11.5217
BRANCH_DIRECT_CALL: 2.48336
BRANCH_INDIRECT_CALL: 0.66396
BRANCH_RETURN: 1.71192

Instructions large pages: 0
Instructions small pages: 1153
Large page distribution for instructions: 0%

Data large pages: 0
Data small pages: 5424
Large page distribution for data: 0%

cpu0_L1I TOTAL       ACCESS:   35890848  HIT:   27936338  MISS:    7954510  iACCESS:   35890848  iHIT:   27936338  iMISS:    7954510  dACCESS:          0  dHIT:          0  dMISS:          0  itACCESS:          0  itHIT:          0  itMISS:          0  dtACCESS:          0  dtHIT:          0  dtMISS:          0
cpu0_L1I LOAD         ACCESS:   10465552  HIT:    8276229  MISS:    2189323  iACCESS:   10465552  iHIT:    8276229  iMISS:    2189323  dACCESS:          0  dHIT:          0  dMISS:          0  itACCESS:          0  itHIT:          0  itMISS:          0  dtACCESS:          0  dtHIT:          0  dtMISS:          0
cpu0_L1I RFO          ACCESS:          0  HIT:          0  MISS:          0  iACCESS:          0  iHIT:          0  iMISS:          0  dACCESS:          0  dHIT:          0  dMISS:          0  itACCESS:          0  itHIT:          0  itMISS:          0  dtACCESS:          0  dtHIT:          0  dtMISS:          0
cpu0_L1I PREFETCH     ACCESS:   25425296  HIT:   19660109  MISS:    5765187  iACCESS:   25425296  iHIT:   19660109  iMISS:    5765187  dACCESS:          0  dHIT:          0  dMISS:          0  itACCESS:          0  itHIT:          0  itMISS:          0  dtACCESS:          0  dtHIT:          0  dtMISS:          0
cpu0_L1I WRITE        ACCESS:          0  HIT:          0  MISS:          0  iACCESS:          0  iHIT:          0  iMISS:          0  dACCESS:          0  dHIT:          0  dMISS:          0  itACCESS:          0  itHIT:          0  itMISS:          0  dtACCESS:          0  dtHIT:          0  dtMISS:          0
cpu0_L1I TRANSLATION  ACCESS:          0  HIT:          0  MISS:          0  iACCESS:          0  iHIT:          0  iMISS:          0  dACCESS:          0  dHIT:          0  dMISS:          0  itACCESS:          0  itHIT:          0  itMISS:          0  dtACCESS:          0  dtHIT:          0  dtMISS:          0
cpu0_L1I PREFETCH  REQUESTED:   27982817  ISSUED:   27982768  CROSSED:          0  USEFUL:    2002198  USELESS:     661426
cpu0_L1I AVERAGE iMISS LATENCY: 19.7695 cycles
cpu0_L1I AVERAGE dMISS LATENCY: 0 cycles
cpu0_L1I AVERAGE itMISS LATENCY: 0 cycles
cpu0_L1I AVERAGE dtMISS LATENCY: 0 cycles
cpu0_L1I PAGE CROSSINGS (TLB HIT):         0 
cpu0_L1I PAGE CROSSINGS (TLB MISS):         0 
cpu0_L1I AVERAGE MISS LATENCY: 19.7695 cycles
cpu0_ITLB TOTAL       ACCESS:   30196129  HIT:   28247467  MISS:    1948662  iACCESS:   30196129  iHIT:   28247467  iMISS:    1948662  dACCESS:          0  dHIT:          0  dMISS:          0  itACCESS:          0  itHIT:          0  itMISS:          0  dtACCESS:          0  dtHIT:          0  dtMISS:          0
cpu0_ITLB LOAD         ACCESS:   30196129  HIT:   28247467  MISS:    1948662  iACCESS:   30196129  iHIT:   28247467  iMISS:    1948662  dACCESS:          0  dHIT:          0  dMISS:          0  itACCESS:          0  itHIT:          0  itMISS:          0  dtACCESS:          0  dtHIT:          0  dtMISS:          0
cpu0_ITLB RFO          ACCESS:          0  HIT:          0  MISS:          0  iACCESS:          0  iHIT:          0  iMISS:          0  dACCESS:          0  dHIT:          0  dMISS:          0  itACCESS:          0  itHIT:          0  itMISS:          0  dtACCESS:          0  dtHIT:          0  dtMISS:          0
cpu0_ITLB PREFETCH     ACCESS:          0  HIT:          0  MISS:          0  iACCESS:          0  iHIT:          0  iMISS:          0  dACCESS:          0  dHIT:          0  dMISS:          0  itACCESS:          0  itHIT:          0  itMISS:          0  dtACCESS:          0  dtHIT:          0  dtMISS:          0
cpu0_ITLB WRITE        ACCESS:          0  HIT:          0  MISS:          0  iACCESS:          0  iHIT:          0  iMISS:          0  dACCESS:          0  dHIT:          0  dMISS:          0  itACCESS:          0  itHIT:          0  itMISS:          0  dtACCESS:          0  dtHIT:          0  dtMISS:          0
cpu0_ITLB TRANSLATION  ACCESS:          0  HIT:          0  MISS:          0  iACCESS:          0  iHIT:          0  iMISS:          0  dACCESS:          0  dHIT:          0  dMISS:          0  itACCESS:          0  itHIT:          0  itMISS:          0  dtACCESS:          0  dtHIT:          0  dtMISS:          0
cpu0_ITLB PREFETCH  REQUESTED:          0  ISSUED:          0  CROSSED:          0  USEFUL:     328388  USELESS:      67010
cpu0_ITLB AVERAGE iMISS LATENCY: 7.95769 cycles
cpu0_ITLB AVERAGE dMISS LATENCY: 0 cycles
cpu0_ITLB AVERAGE itMISS LATENCY: 0 cycles
cpu0_ITLB AVERAGE dtMISS LATENCY: 0 cycles
cpu0_ITLB PAGE CROSSINGS (TLB HIT):         0 
cpu0_ITLB PAGE CROSSINGS (TLB MISS):         0 
cpu0_ITLB AVERAGE MISS LATENCY: 7.95769 cycles
cpu0_DTLB TOTAL       ACCESS:   28039116  HIT:   26264597  MISS:    1774519  iACCESS:          0  iHIT:          0  iMISS:          0  dACCESS:   28039116  dHIT:   26264597  dMISS:    1774519  itACCESS:          0  itHIT:          0  itMISS:          0  dtACCESS:          0  dtHIT:          0  dtMISS:          0
cpu0_DTLB LOAD         ACCESS:   28039116  HIT:   26264597  MISS:    1774519  iACCESS:          0  iHIT:          0  iMISS:          0  dACCESS:   28039116  dHIT:   26264597  dMISS:    1774519  itACCESS:          0  itHIT:          0  itMISS:          0  dtACCESS:          0  dtHIT:          0  dtMISS:          0
cpu0_DTLB RFO          ACCESS:          0  HIT:          0  MISS:          0  iACCESS:          0  iHIT:          0  iMISS:          0  dACCESS:          0  dHIT:          0  dMISS:          0  itACCESS:          0  itHIT:          0  itMISS:          0  dtACCESS:          0  dtHIT:          0  dtMISS:          0
cpu0_DTLB PREFETCH     ACCESS:          0  HIT:          0  MISS:          0  iACCESS:          0  iHIT:          0  iMISS:          0  dACCESS:          0  dHIT:          0  dMISS:          0  itACCESS:          0  itHIT:          0  itMISS:          0  dtACCESS:          0  dtHIT:          0  dtMISS:          0
cpu0_DTLB WRITE        ACCESS:          0  HIT:          0  MISS:          0  iACCESS:          0  iHIT:          0  iMISS:          0  dACCESS:          0  dHIT:          0  dMISS:          0  itACCESS:          0  itHIT:          0  itMISS:          0  dtACCESS:          0  dtHIT:          0  dtMISS:          0
cpu0_DTLB TRANSLATION  ACCESS:          0  HIT:          0  MISS:          0  iACCESS:          0  iHIT:          0  iMISS:          0  dACCESS:          0  dHIT:          0  dMISS:          0  itACCESS:          0  itHIT:          0  itMISS:          0  dtACCESS:          0  dtHIT:          0  dtMISS:          0
cpu0_DTLB PREFETCH  REQUESTED:          0  ISSUED:          0  CROSSED:          0  USEFUL:          0  USELESS:          0
cpu0_DTLB AVERAGE iMISS LATENCY: 0 cycles
cpu0_DTLB AVERAGE dMISS LATENCY: 22.6445 cycles
cpu0_DTLB AVERAGE itMISS LATENCY: 0 cycles
cpu0_DTLB AVERAGE dtMISS LATENCY: 0 cycles
cpu0_DTLB PAGE CROSSINGS (TLB HIT):         0 
cpu0_DTLB PAGE CROSSINGS (TLB MISS):         0 
cpu0_DTLB AVERAGE MISS LATENCY: 22.6445 cycles
cpu0_STLB TOTAL       ACCESS:    1500218  HIT:    1262276  MISS:     237942  iACCESS:     395406  iHIT:     305878  iMISS:      89528  dACCESS:    1104812  dHIT:     956398  dMISS:     148414  itACCESS:          0  itHIT:          0  itMISS:          0  dtACCESS:          0  dtHIT:          0  dtMISS:          0
cpu0_STLB LOAD         ACCESS:    1500218  HIT:    1262276  MISS:     237942  iACCESS:     395406  iHIT:     305878  iMISS:      89528  dACCESS:    1104812  dHIT:     956398  dMISS:     148414  itACCESS:          0  itHIT:          0  itMISS:          0  dtACCESS:          0  dtHIT:          0  dtMISS:          0
cpu0_STLB RFO          ACCESS:          0  HIT:          0  MISS:          0  iACCESS:          0  iHIT:          0  iMISS:          0  dACCESS:          0  dHIT:          0  dMISS:          0  itACCESS:          0  itHIT:          0  itMISS:          0  dtACCESS:          0  dtHIT:          0  dtMISS:          0
cpu0_STLB PREFETCH     ACCESS:          0  HIT:          0  MISS:          0  iACCESS:          0  iHIT:          0  iMISS:          0  dACCESS:          0  dHIT:          0  dMISS:          0  itACCESS:          0  itHIT:          0  itMISS:          0  dtACCESS:          0  dtHIT:          0  dtMISS:          0
cpu0_STLB WRITE        ACCESS:          0  HIT:          0  MISS:          0  iACCESS:          0  iHIT:          0  iMISS:          0  dACCESS:          0  dHIT:          0  dMISS:          0  itACCESS:          0  itHIT:          0  itMISS:          0  dtACCESS:          0  dtHIT:          0  dtMISS:          0
cpu0_STLB TRANSLATION  ACCESS:          0  HIT:          0  MISS:          0  iACCESS:          0  iHIT:          0  iMISS:          0  dACCESS:          0  dHIT:          0  dMISS:          0  itACCESS:          0  itHIT:          0  itMISS:          0  dtACCESS:          0  dtHIT:          0  dtMISS:          0
cpu0_STLB PREFETCH  REQUESTED:          0  ISSUED:          0  CROSSED:          0  USEFUL:          0  USELESS:          0
cpu0_STLB AVERAGE iMISS LATENCY: 51.9061 cycles
cpu0_STLB AVERAGE dMISS LATENCY: 131.642 cycles
cpu0_STLB AVERAGE itMISS LATENCY: 0 cycles
cpu0_STLB AVERAGE dtMISS LATENCY: 0 cycles
cpu0_STLB PAGE CROSSINGS (TLB HIT):         0 
cpu0_STLB PAGE CROSSINGS (TLB MISS):         0 
cpu0_STLB AVERAGE MISS LATENCY: 183.548 cycles
cpu0_L1D TOTAL       ACCESS:   42940842  HIT:   38571221  MISS:    4369621  iACCESS:          0  iHIT:          0  iMISS:          0  dACCESS:   42636861  dHIT:   38546474  dMISS:    4090387  itACCESS:      95685  itHIT:      13005  itMISS:      82680  dtACCESS:     208296  dtHIT:      11742  dtMISS:     196554
cpu0_L1D LOAD         ACCESS:   19583237  HIT:   17706986  MISS:    1876251  iACCESS:          0  iHIT:          0  iMISS:          0  dACCESS:   19583237  dHIT:   17706986  dMISS:    1876251  itACCESS:          0  itHIT:          0  itMISS:          0  dtACCESS:          0  dtHIT:          0  dtMISS:          0
cpu0_L1D RFO          ACCESS:          0  HIT:          0  MISS:          0  iACCESS:          0  iHIT:          0  iMISS:          0  dACCESS:          0  dHIT:          0  dMISS:          0  itACCESS:          0  itHIT:          0  itMISS:          0  dtACCESS:          0  dtHIT:          0  dtMISS:          0
cpu0_L1D PREFETCH     ACCESS:   12919252  HIT:   11161012  MISS:    1758240  iACCESS:          0  iHIT:          0  iMISS:          0  dACCESS:   12919252  dHIT:   11161012  dMISS:    1758240  itACCESS:          0  itHIT:          0  itMISS:          0  dtACCESS:          0  dtHIT:          0  dtMISS:          0
cpu0_L1D WRITE        ACCESS:   10134372  HIT:    9678476  MISS:     455896  iACCESS:          0  iHIT:          0  iMISS:          0  dACCESS:   10134372  dHIT:    9678476  dMISS:     455896  itACCESS:          0  itHIT:          0  itMISS:          0  dtACCESS:          0  dtHIT:          0  dtMISS:          0
cpu0_L1D TRANSLATION  ACCESS:     303981  HIT:      24747  MISS:     279234  iACCESS:          0  iHIT:          0  iMISS:          0  dACCESS:          0  dHIT:          0  dMISS:          0  itACCESS:      95685  itHIT:      13005  itMISS:      82680  dtACCESS:     208296  dtHIT:      11742  dtMISS:     196554
cpu0_L1D PREFETCH  REQUESTED:   19583237  ISSUED:   17298790  CROSSED:          0  USEFUL:     318833  USELESS:     717895
cpu0_L1D AVERAGE iMISS LATENCY: 0 cycles
cpu0_L1D AVERAGE dMISS LATENCY: 40.2111 cycles
cpu0_L1D AVERAGE itMISS LATENCY: 2.65036 cycles
cpu0_L1D AVERAGE dtMISS LATENCY: 6.70212 cycles
cpu0_L1D PAGE CROSSINGS (TLB HIT):         0 
cpu0_L1D PAGE CROSSINGS (TLB MISS):         0 
cpu0_L1D AVERAGE MISS LATENCY: 49.5636 cycles
cpu0_L2C TOTAL       ACCESS:    7383495  HIT:    3754416  MISS:    3629079  iACCESS:    3404335  iHIT:    2056506  iMISS:    1347829  dACCESS:    3709880  dHIT:    1657856  dMISS:    2052024  itACCESS:      82680  itHIT:      16553  itMISS:      66127  dtACCESS:     186600  dtHIT:      23501  dtMISS:     163099
cpu0_L2C LOAD         ACCESS:    1750626  HIT:     926519  MISS:     824107  iACCESS:     778188  iHIT:     499338  iMISS:     278850  dACCESS:     972438  dHIT:     427181  dMISS:     545257  itACCESS:          0  itHIT:          0  itMISS:          0  dtACCESS:          0  dtHIT:          0  dtMISS:          0
cpu0_L2C RFO          ACCESS:     160390  HIT:      64260  MISS:      96130  iACCESS:          0  iHIT:          0  iMISS:          0  dACCESS:     160390  dHIT:      64260  dMISS:      96130  itACCESS:          0  itHIT:          0  itMISS:          0  dtACCESS:          0  dtHIT:          0  dtMISS:          0
cpu0_L2C PREFETCH     ACCESS:    4920856  HIT:    2442079  MISS:    2478777  iACCESS:    2626147  iHIT:    1557168  iMISS:    1068979  dACCESS:    2294709  dHIT:     884911  dMISS:    1409798  itACCESS:          0  itHIT:          0  itMISS:          0  dtACCESS:          0  dtHIT:          0  dtMISS:          0
cpu0_L2C WRITE        ACCESS:     282343  HIT:     281504  MISS:        839  iACCESS:          0  iHIT:          0  iMISS:          0  dACCESS:     282343  dHIT:     281504  dMISS:        839  itACCESS:          0  itHIT:          0  itMISS:          0  dtACCESS:          0  dtHIT:          0  dtMISS:          0
cpu0_L2C TRANSLATION  ACCESS:     269280  HIT:      40054  MISS:     229226  iACCESS:          0  iHIT:          0  iMISS:          0  dACCESS:          0  dHIT:          0  dMISS:          0  itACCESS:      82680  itHIT:      16553  itMISS:      66127  dtACCESS:     186600  dtHIT:      23501  dtMISS:     163099
cpu0_L2C PREFETCH  REQUESTED:    1526107  ISSUED:    1525737  CROSSED:          0  USEFUL:     374604  USELESS:     298414
cpu0_L2C AVERAGE iMISS LATENCY: 35.1013 cycles
cpu0_L2C AVERAGE dMISS LATENCY: 62.1775 cycles
cpu0_L2C AVERAGE itMISS LATENCY: 2.96728 cycles
cpu0_L2C AVERAGE dtMISS LATENCY: 7.55917 cycles
cpu0_L2C PAGE CROSSINGS (TLB HIT):         0 
cpu0_L2C PAGE CROSSINGS (TLB MISS):         0 
cpu0_L2C AVERAGE MISS LATENCY: 107.806 cycles
LLC TOTAL       ACCESS:    3587345  HIT:    1550356  MISS:    2036989  iACCESS:    1267497  iHIT:     571912  iMISS:     695585  dACCESS:    2090622  dHIT:     932535  dMISS:    1158087  itACCESS:      66127  itHIT:      12281  itMISS:      53846  dtACCESS:     163099  dtHIT:      33628  dtMISS:     129471
LLC LOAD         ACCESS:     817318  HIT:     370701  MISS:     446617  iACCESS:     277522  iHIT:     129140  iMISS:     148382  dACCESS:     539796  dHIT:     241561  dMISS:     298235  itACCESS:          0  itHIT:          0  itMISS:          0  dtACCESS:          0  dtHIT:          0  dtMISS:          0
LLC RFO          ACCESS:      96127  HIT:      33330  MISS:      62797  iACCESS:          0  iHIT:          0  iMISS:          0  dACCESS:      96127  dHIT:      33330  dMISS:      62797  itACCESS:          0  itHIT:          0  itMISS:          0  dtACCESS:          0  dtHIT:          0  dtMISS:          0
LLC PREFETCH     ACCESS:    2293299  HIT:     957396  MISS:    1335903  iACCESS:     989975  iHIT:     442772  iMISS:     547203  dACCESS:    1303324  dHIT:     514624  dMISS:     788700  itACCESS:          0  itHIT:          0  itMISS:          0  dtACCESS:          0  dtHIT:          0  dtMISS:          0
LLC WRITE        ACCESS:     151375  HIT:     143020  MISS:       8355  iACCESS:          0  iHIT:          0  iMISS:          0  dACCESS:     151375  dHIT:     143020  dMISS:       8355  itACCESS:          0  itHIT:          0  itMISS:          0  dtACCESS:          0  dtHIT:          0  dtMISS:          0
LLC TRANSLATION  ACCESS:     229226  HIT:      45909  MISS:     183317  iACCESS:          0  iHIT:          0  iMISS:          0  dACCESS:          0  dHIT:          0  dMISS:          0  itACCESS:      66127  itHIT:      12281  itMISS:      53846  dtACCESS:     163099  dtHIT:      33628  dtMISS:     129471
LLC PREFETCH  REQUESTED:          0  ISSUED:          0  CROSSED:          0  USEFUL:          0  USELESS:          0
LLC AVERAGE iMISS LATENCY: 50.3596 cycles
LLC AVERAGE dMISS LATENCY: 93.1772 cycles
LLC AVERAGE itMISS LATENCY: 4.64553 cycles
LLC AVERAGE dtMISS LATENCY: 11.8907 cycles
LLC PAGE CROSSINGS (TLB HIT):         0 
LLC PAGE CROSSINGS (TLB MISS):         0 
LLC AVERAGE MISS LATENCY: 160.073 cycles

PageTableWalker TOTAL       ACCESS:     119324  
PageTableWalker AVERAGE LATENCY: 5.13642 cycles
PageTableWalker TOTAL LATENCY: 612897 cycles

DRAM Statistics
Channel 0
 RQ ROW_BUFFER_HIT:     570749
  ROW_BUFFER_MISS:    1439143
 AVG DBUS CONGESTED CYCLE:     3.6404
 WQ ROW_BUFFER_HIT:      39794
  ROW_BUFFER_MISS:      27723  FULL:          0

