last_page:0x200000000000000
VMEM_RES_CAP:0x100000
PAGE_SIZE:4096
LOG2_PAGE_SIZE:12
LOG2_PAGE_TABLE_SIZE:9
page_table_levels:5
WARNING: physical memory size is smaller than virtual memory size
FDiP enabled with aggresivity 16

*** ChampSim Multicore Out-of-Order Simulator ***

Warmup Instructions: 50000000
Simulation Instructions: 100000000
Number of CPUs: 1
Small page size: 4096
Large page size: 2097152

CPU 0 Bimodal branch predictor
Basic BTB sets: 1024 ways: 8 indirect buffer size: 4096 RAS size: 64
Instruction page size distrubution: 0
Loading instruction page size distribution from /home/bsc/bsc018186/scratch/itp_asplos25_AE/dump/srv506_ap.pdst
Data page size distrubution: 0
Loading data page size distribution from /home/bsc/bsc018186/scratch/itp_asplos25_AE/dump/srv506_ap.pdst
cpu0_L2C IP-based stride prefetcher
cpu0_L1D next line prefetcher
cpu0_L1I next line prefetcher
Off-chip DRAM Size: 4 GiB Channels: 1 Width: 64-bit Data Rate: 3200 MT/s
Heartbeat CPU 0 instructions: 10000002 cycles: 2500108 heartbeat IPC: 3.99983 cumulative IPC: 3.99983 (Simulation time: 0 hr 0 min 35 sec) 
Heartbeat CPU 0 instructions: 20000001 cycles: 5000223 heartbeat IPC: 3.99982 cumulative IPC: 3.99983 (Simulation time: 0 hr 1 min 12 sec) 
Heartbeat CPU 0 instructions: 30000001 cycles: 7500277 heartbeat IPC: 3.99992 cumulative IPC: 3.99986 (Simulation time: 0 hr 1 min 53 sec) 
Heartbeat CPU 0 instructions: 40000001 cycles: 10000278 heartbeat IPC: 4 cumulative IPC: 3.99989 (Simulation time: 0 hr 2 min 37 sec) 
Heartbeat CPU 0 instructions: 50000001 cycles: 12500283 heartbeat IPC: 4 cumulative IPC: 3.99991 (Simulation time: 0 hr 3 min 14 sec) 
Warmup finished CPU 0 instructions: 50000001 cycles: 12500284 cumulative IPC: 3.99991 (Simulation time: 0 hr 3 min 14 sec) 

Warmup complete CPU 0 instructions: 50000001 cycles: 12500284 (Simulation time: 0 hr 3 min 14 sec) 

Heartbeat CPU 0 instructions: 60000003 cycles: 27103035 heartbeat IPC: 0.684803 cumulative IPC: 0.684803 (Simulation time: 0 hr 4 min 14 sec) 
Heartbeat CPU 0 instructions: 70000001 cycles: 41648370 heartbeat IPC: 0.687506 cumulative IPC: 0.686152 (Simulation time: 0 hr 5 min 15 sec) 
Heartbeat CPU 0 instructions: 80000001 cycles: 57099850 heartbeat IPC: 0.647188 cumulative IPC: 0.672653 (Simulation time: 0 hr 6 min 16 sec) 
Heartbeat CPU 0 instructions: 90000001 cycles: 71360643 heartbeat IPC: 0.701224 cumulative IPC: 0.679575 (Simulation time: 0 hr 7 min 16 sec) 
Heartbeat CPU 0 instructions: 100000003 cycles: 85847659 heartbeat IPC: 0.690274 cumulative IPC: 0.681688 (Simulation time: 0 hr 8 min 16 sec) 
*** Reached end of trace: /gpfs/projects/bsc18/MN4/bsc18/romol/ChampSim/traces/qualcomm_srv/srv506_ap.champsimtrace.xz
Heartbeat CPU 0 instructions: 110000001 cycles: 100508915 heartbeat IPC: 0.68207 cumulative IPC: 0.681752 (Simulation time: 0 hr 9 min 17 sec) 
Heartbeat CPU 0 instructions: 120000003 cycles: 114725850 heartbeat IPC: 0.703387 cumulative IPC: 0.684761 (Simulation time: 0 hr 10 min 17 sec) 
Heartbeat CPU 0 instructions: 130000000 cycles: 128996149 heartbeat IPC: 0.700756 cumulative IPC: 0.68672 (Simulation time: 0 hr 11 min 17 sec) 
Heartbeat CPU 0 instructions: 140000002 cycles: 142701690 heartbeat IPC: 0.729633 cumulative IPC: 0.691237 (Simulation time: 0 hr 12 min 16 sec) 
Heartbeat CPU 0 instructions: 150000000 cycles: 157592574 heartbeat IPC: 0.671552 cumulative IPC: 0.689217 (Simulation time: 0 hr 13 min 17 sec) 
Simulation finished CPU 0 instructions: 100000000 cycles: 145092293 cumulative IPC: 0.689217 (Simulation time: 0 hr 13 min 17 sec) 

Simulation complete CPU 0 instructions: 100000000 cycles: 145092293 (Simulation time: 0 hr 13 min 17 sec) 


ChampSim completed all CPUs

Saving instructions large page distribution to /home/bsc/bsc018186/scratch/itp_asplos25_AE/dump/srv506_ap.pdst...
Saving data large page distribution to /home/bsc/bsc018186/scratch/itp_asplos25_AE/dump/srv506_ap.pdst...
=== Simulation ===
CPU 0 runs /gpfs/projects/bsc18/MN4/bsc18/romol/ChampSim/traces/qualcomm_srv/srv506_ap.champsimtrace.xz

Region of Interest Statistics

CPU 0 cumulative IPC: 0.689217 instructions: 100000000 cycles: 145092293
CPU 0 Branch Prediction Accuracy: 82.859% MPKI: 30.6843 Average ROB Occupancy at Mispredict: 12.142
Branch type MPKI
BRANCH_DIRECT_JUMP: 1.03521
BRANCH_INDIRECT: 15.6921
BRANCH_CONDITIONAL: 10.1968
BRANCH_DIRECT_CALL: 1.88253
BRANCH_INDIRECT_CALL: 0.530291
BRANCH_RETURN: 1.34748

Instructions large pages: 0
Instructions small pages: 1084
Large page distribution for instructions: 0%

Data large pages: 0
Data small pages: 9900
Large page distribution for data: 0%

cpu0_L1I TOTAL       ACCESS:   35519557  HIT:   27104111  MISS:    8415446  iACCESS:   35519557  iHIT:   27104111  iMISS:    8415446  dACCESS:          0  dHIT:          0  dMISS:          0  itACCESS:          0  itHIT:          0  itMISS:          0  dtACCESS:          0  dtHIT:          0  dtMISS:          0
cpu0_L1I LOAD         ACCESS:   10396614  HIT:    8044340  MISS:    2352274  iACCESS:   10396614  iHIT:    8044340  iMISS:    2352274  dACCESS:          0  dHIT:          0  dMISS:          0  itACCESS:          0  itHIT:          0  itMISS:          0  dtACCESS:          0  dtHIT:          0  dtMISS:          0
cpu0_L1I RFO          ACCESS:          0  HIT:          0  MISS:          0  iACCESS:          0  iHIT:          0  iMISS:          0  dACCESS:          0  dHIT:          0  dMISS:          0  itACCESS:          0  itHIT:          0  itMISS:          0  dtACCESS:          0  dtHIT:          0  dtMISS:          0
cpu0_L1I PREFETCH     ACCESS:   25122943  HIT:   19059771  MISS:    6063172  iACCESS:   25122943  iHIT:   19059771  iMISS:    6063172  dACCESS:          0  dHIT:          0  dMISS:          0  itACCESS:          0  itHIT:          0  itMISS:          0  dtACCESS:          0  dtHIT:          0  dtMISS:          0
cpu0_L1I WRITE        ACCESS:          0  HIT:          0  MISS:          0  iACCESS:          0  iHIT:          0  iMISS:          0  dACCESS:          0  dHIT:          0  dMISS:          0  itACCESS:          0  itHIT:          0  itMISS:          0  dtACCESS:          0  dtHIT:          0  dtMISS:          0
cpu0_L1I TRANSLATION  ACCESS:          0  HIT:          0  MISS:          0  iACCESS:          0  iHIT:          0  iMISS:          0  dACCESS:          0  dHIT:          0  dMISS:          0  itACCESS:          0  itHIT:          0  itMISS:          0  dtACCESS:          0  dtHIT:          0  dtMISS:          0
cpu0_L1I PREFETCH  REQUESTED:   27436067  ISSUED:   27433128  CROSSED:          0  USEFUL:    1942851  USELESS:     629950
cpu0_L1I AVERAGE iMISS LATENCY: 13.6274 cycles
cpu0_L1I AVERAGE dMISS LATENCY: 0 cycles
cpu0_L1I AVERAGE itMISS LATENCY: 0 cycles
cpu0_L1I AVERAGE dtMISS LATENCY: 0 cycles
cpu0_L1I PAGE CROSSINGS (TLB HIT):         0 
cpu0_L1I PAGE CROSSINGS (TLB MISS):         0 
cpu0_L1I AVERAGE MISS LATENCY: 13.6274 cycles
cpu0_ITLB TOTAL       ACCESS:   29400900  HIT:   27465297  MISS:    1935603  iACCESS:   29400900  iHIT:   27465297  iMISS:    1935603  dACCESS:          0  dHIT:          0  dMISS:          0  itACCESS:          0  itHIT:          0  itMISS:          0  dtACCESS:          0  dtHIT:          0  dtMISS:          0
cpu0_ITLB LOAD         ACCESS:   29400900  HIT:   27465297  MISS:    1935603  iACCESS:   29400900  iHIT:   27465297  iMISS:    1935603  dACCESS:          0  dHIT:          0  dMISS:          0  itACCESS:          0  itHIT:          0  itMISS:          0  dtACCESS:          0  dtHIT:          0  dtMISS:          0
cpu0_ITLB RFO          ACCESS:          0  HIT:          0  MISS:          0  iACCESS:          0  iHIT:          0  iMISS:          0  dACCESS:          0  dHIT:          0  dMISS:          0  itACCESS:          0  itHIT:          0  itMISS:          0  dtACCESS:          0  dtHIT:          0  dtMISS:          0
cpu0_ITLB PREFETCH     ACCESS:          0  HIT:          0  MISS:          0  iACCESS:          0  iHIT:          0  iMISS:          0  dACCESS:          0  dHIT:          0  dMISS:          0  itACCESS:          0  itHIT:          0  itMISS:          0  dtACCESS:          0  dtHIT:          0  dtMISS:          0
cpu0_ITLB WRITE        ACCESS:          0  HIT:          0  MISS:          0  iACCESS:          0  iHIT:          0  iMISS:          0  dACCESS:          0  dHIT:          0  dMISS:          0  itACCESS:          0  itHIT:          0  itMISS:          0  dtACCESS:          0  dtHIT:          0  dtMISS:          0
cpu0_ITLB TRANSLATION  ACCESS:          0  HIT:          0  MISS:          0  iACCESS:          0  iHIT:          0  iMISS:          0  dACCESS:          0  dHIT:          0  dMISS:          0  itACCESS:          0  itHIT:          0  itMISS:          0  dtACCESS:          0  dtHIT:          0  dtMISS:          0
cpu0_ITLB PREFETCH  REQUESTED:          0  ISSUED:          0  CROSSED:          0  USEFUL:     316854  USELESS:      64475
cpu0_ITLB AVERAGE iMISS LATENCY: 3.24893 cycles
cpu0_ITLB AVERAGE dMISS LATENCY: 0 cycles
cpu0_ITLB AVERAGE itMISS LATENCY: 0 cycles
cpu0_ITLB AVERAGE dtMISS LATENCY: 0 cycles
cpu0_ITLB PAGE CROSSINGS (TLB HIT):         0 
cpu0_ITLB PAGE CROSSINGS (TLB MISS):         0 
cpu0_ITLB AVERAGE MISS LATENCY: 3.24893 cycles
cpu0_DTLB TOTAL       ACCESS:   27763747  HIT:   25731130  MISS:    2032617  iACCESS:          0  iHIT:          0  iMISS:          0  dACCESS:   27763747  dHIT:   25731130  dMISS:    2032617  itACCESS:          0  itHIT:          0  itMISS:          0  dtACCESS:          0  dtHIT:          0  dtMISS:          0
cpu0_DTLB LOAD         ACCESS:   27763747  HIT:   25731130  MISS:    2032617  iACCESS:          0  iHIT:          0  iMISS:          0  dACCESS:   27763747  dHIT:   25731130  dMISS:    2032617  itACCESS:          0  itHIT:          0  itMISS:          0  dtACCESS:          0  dtHIT:          0  dtMISS:          0
cpu0_DTLB RFO          ACCESS:          0  HIT:          0  MISS:          0  iACCESS:          0  iHIT:          0  iMISS:          0  dACCESS:          0  dHIT:          0  dMISS:          0  itACCESS:          0  itHIT:          0  itMISS:          0  dtACCESS:          0  dtHIT:          0  dtMISS:          0
cpu0_DTLB PREFETCH     ACCESS:          0  HIT:          0  MISS:          0  iACCESS:          0  iHIT:          0  iMISS:          0  dACCESS:          0  dHIT:          0  dMISS:          0  itACCESS:          0  itHIT:          0  itMISS:          0  dtACCESS:          0  dtHIT:          0  dtMISS:          0
cpu0_DTLB WRITE        ACCESS:          0  HIT:          0  MISS:          0  iACCESS:          0  iHIT:          0  iMISS:          0  dACCESS:          0  dHIT:          0  dMISS:          0  itACCESS:          0  itHIT:          0  itMISS:          0  dtACCESS:          0  dtHIT:          0  dtMISS:          0
cpu0_DTLB TRANSLATION  ACCESS:          0  HIT:          0  MISS:          0  iACCESS:          0  iHIT:          0  iMISS:          0  dACCESS:          0  dHIT:          0  dMISS:          0  itACCESS:          0  itHIT:          0  itMISS:          0  dtACCESS:          0  dtHIT:          0  dtMISS:          0
cpu0_DTLB PREFETCH  REQUESTED:          0  ISSUED:          0  CROSSED:          0  USEFUL:          0  USELESS:          0
cpu0_DTLB AVERAGE iMISS LATENCY: 0 cycles
cpu0_DTLB AVERAGE dMISS LATENCY: 10.6093 cycles
cpu0_DTLB AVERAGE itMISS LATENCY: 0 cycles
cpu0_DTLB AVERAGE dtMISS LATENCY: 0 cycles
cpu0_DTLB PAGE CROSSINGS (TLB HIT):         0 
cpu0_DTLB PAGE CROSSINGS (TLB MISS):         0 
cpu0_DTLB AVERAGE MISS LATENCY: 10.6093 cycles
cpu0_STLB TOTAL       ACCESS:    1629084  HIT:    1459543  MISS:     169541  iACCESS:     381359  iHIT:     322305  iMISS:      59054  dACCESS:    1247725  dHIT:    1137238  dMISS:     110487  itACCESS:          0  itHIT:          0  itMISS:          0  dtACCESS:          0  dtHIT:          0  dtMISS:          0
cpu0_STLB LOAD         ACCESS:    1629084  HIT:    1459543  MISS:     169541  iACCESS:     381359  iHIT:     322305  iMISS:      59054  dACCESS:    1247725  dHIT:    1137238  dMISS:     110487  itACCESS:          0  itHIT:          0  itMISS:          0  dtACCESS:          0  dtHIT:          0  dtMISS:          0
cpu0_STLB RFO          ACCESS:          0  HIT:          0  MISS:          0  iACCESS:          0  iHIT:          0  iMISS:          0  dACCESS:          0  dHIT:          0  dMISS:          0  itACCESS:          0  itHIT:          0  itMISS:          0  dtACCESS:          0  dtHIT:          0  dtMISS:          0
cpu0_STLB PREFETCH     ACCESS:          0  HIT:          0  MISS:          0  iACCESS:          0  iHIT:          0  iMISS:          0  dACCESS:          0  dHIT:          0  dMISS:          0  itACCESS:          0  itHIT:          0  itMISS:          0  dtACCESS:          0  dtHIT:          0  dtMISS:          0
cpu0_STLB WRITE        ACCESS:          0  HIT:          0  MISS:          0  iACCESS:          0  iHIT:          0  iMISS:          0  dACCESS:          0  dHIT:          0  dMISS:          0  itACCESS:          0  itHIT:          0  itMISS:          0  dtACCESS:          0  dtHIT:          0  dtMISS:          0
cpu0_STLB TRANSLATION  ACCESS:          0  HIT:          0  MISS:          0  iACCESS:          0  iHIT:          0  iMISS:          0  dACCESS:          0  dHIT:          0  dMISS:          0  itACCESS:          0  itHIT:          0  itMISS:          0  dtACCESS:          0  dtHIT:          0  dtMISS:          0
cpu0_STLB PREFETCH  REQUESTED:          0  ISSUED:          0  CROSSED:          0  USEFUL:          0  USELESS:          0
cpu0_STLB AVERAGE iMISS LATENCY: 19.3228 cycles
cpu0_STLB AVERAGE dMISS LATENCY: 68.5962 cycles
cpu0_STLB AVERAGE itMISS LATENCY: 0 cycles
cpu0_STLB AVERAGE dtMISS LATENCY: 0 cycles
cpu0_STLB PAGE CROSSINGS (TLB HIT):         0 
cpu0_STLB PAGE CROSSINGS (TLB MISS):         0 
cpu0_STLB AVERAGE MISS LATENCY: 87.9189 cycles
cpu0_L1D TOTAL       ACCESS:   41587102  HIT:   38059206  MISS:    3527896  iACCESS:          0  iHIT:          0  iMISS:          0  dACCESS:   41356942  dHIT:   38039003  dMISS:    3317939  itACCESS:      64143  itHIT:       9400  itMISS:      54743  dtACCESS:     166017  dtHIT:      10803  dtMISS:     155214
cpu0_L1D LOAD         ACCESS:   18973889  HIT:   17458445  MISS:    1515444  iACCESS:          0  iHIT:          0  iMISS:          0  dACCESS:   18973889  dHIT:   17458445  dMISS:    1515444  itACCESS:          0  itHIT:          0  itMISS:          0  dtACCESS:          0  dtHIT:          0  dtMISS:          0
cpu0_L1D RFO          ACCESS:          0  HIT:          0  MISS:          0  iACCESS:          0  iHIT:          0  iMISS:          0  dACCESS:          0  dHIT:          0  dMISS:          0  itACCESS:          0  itHIT:          0  itMISS:          0  dtACCESS:          0  dtHIT:          0  dtMISS:          0
cpu0_L1D PREFETCH     ACCESS:   12201833  HIT:   10822933  MISS:    1378900  iACCESS:          0  iHIT:          0  iMISS:          0  dACCESS:   12201833  dHIT:   10822933  dMISS:    1378900  itACCESS:          0  itHIT:          0  itMISS:          0  dtACCESS:          0  dtHIT:          0  dtMISS:          0
cpu0_L1D WRITE        ACCESS:   10181220  HIT:    9757625  MISS:     423595  iACCESS:          0  iHIT:          0  iMISS:          0  dACCESS:   10181220  dHIT:    9757625  dMISS:     423595  itACCESS:          0  itHIT:          0  itMISS:          0  dtACCESS:          0  dtHIT:          0  dtMISS:          0
cpu0_L1D TRANSLATION  ACCESS:     230160  HIT:      20203  MISS:     209957  iACCESS:          0  iHIT:          0  iMISS:          0  dACCESS:          0  dHIT:          0  dMISS:          0  itACCESS:      64143  itHIT:       9400  itMISS:      54743  dtACCESS:     166017  dtHIT:      10803  dtMISS:     155214
cpu0_L1D PREFETCH  REQUESTED:   18973889  ISSUED:   16996279  CROSSED:          0  USEFUL:     306452  USELESS:     701636
cpu0_L1D AVERAGE iMISS LATENCY: 0 cycles
cpu0_L1D AVERAGE dMISS LATENCY: 34.0975 cycles
cpu0_L1D AVERAGE itMISS LATENCY: 0.778747 cycles
cpu0_L1D AVERAGE dtMISS LATENCY: 2.62434 cycles
cpu0_L1D PAGE CROSSINGS (TLB HIT):         0 
cpu0_L1D PAGE CROSSINGS (TLB MISS):         0 
cpu0_L1D AVERAGE MISS LATENCY: 37.5006 cycles
cpu0_L2C TOTAL       ACCESS:    7018660  HIT:    1656930  MISS:    5361730  iACCESS:    3314203  iHIT:     865669  iMISS:    2448534  dACCESS:    3503378  dHIT:     677724  dMISS:    2825654  itACCESS:      54743  itHIT:      38279  itMISS:      16464  dtACCESS:     146336  dtHIT:      75258  dtMISS:      71078
cpu0_L2C LOAD         ACCESS:    1709449  HIT:     283112  MISS:    1426337  iACCESS:     779196  iHIT:     145799  iMISS:     633397  dACCESS:     930253  dHIT:     137313  dMISS:     792940  itACCESS:          0  itHIT:          0  itMISS:          0  dtACCESS:          0  dtHIT:          0  dtMISS:          0
cpu0_L2C RFO          ACCESS:     159285  HIT:      47664  MISS:     111621  iACCESS:          0  iHIT:          0  iMISS:          0  dACCESS:     159285  dHIT:      47664  dMISS:     111621  itACCESS:          0  itHIT:          0  itMISS:          0  dtACCESS:          0  dtHIT:          0  dtMISS:          0
cpu0_L2C PREFETCH     ACCESS:    4667690  HIT:    1082080  MISS:    3585610  iACCESS:    2535007  iHIT:     719870  iMISS:    1815137  dACCESS:    2132683  dHIT:     362210  dMISS:    1770473  itACCESS:          0  itHIT:          0  itMISS:          0  dtACCESS:          0  dtHIT:          0  dtMISS:          0
cpu0_L2C WRITE        ACCESS:     281157  HIT:     130537  MISS:     150620  iACCESS:          0  iHIT:          0  iMISS:          0  dACCESS:     281157  dHIT:     130537  dMISS:     150620  itACCESS:          0  itHIT:          0  itMISS:          0  dtACCESS:          0  dtHIT:          0  dtMISS:          0
cpu0_L2C TRANSLATION  ACCESS:     201079  HIT:     113537  MISS:      87542  iACCESS:          0  iHIT:          0  iMISS:          0  dACCESS:          0  dHIT:          0  dMISS:          0  itACCESS:      54743  itHIT:      38279  itMISS:      16464  dtACCESS:     146336  dtHIT:      75258  dtMISS:      71078
cpu0_L2C PREFETCH  REQUESTED:    1384534  ISSUED:    1384534  CROSSED:          0  USEFUL:     407215  USELESS:     379957
cpu0_L2C AVERAGE iMISS LATENCY: 15.5671 cycles
cpu0_L2C AVERAGE dMISS LATENCY: 26.2091 cycles
cpu0_L2C AVERAGE itMISS LATENCY: 0.417172 cycles
cpu0_L2C AVERAGE dtMISS LATENCY: 1.46625 cycles
cpu0_L2C PAGE CROSSINGS (TLB HIT):         0 
cpu0_L2C PAGE CROSSINGS (TLB MISS):         0 
cpu0_L2C AVERAGE MISS LATENCY: 43.6596 cycles
LLC TOTAL       ACCESS:    5239890  HIT:    4371675  MISS:     868215  iACCESS:    2392277  iHIT:    2135938  iMISS:     256339  dACCESS:    2760071  dHIT:    2195698  dMISS:     564373  itACCESS:      16464  itHIT:       5335  itMISS:      11129  dtACCESS:      71078  dtHIT:      34704  dtMISS:      36374
LLC LOAD         ACCESS:    1423747  HIT:    1231140  MISS:     192607  iACCESS:     631865  iHIT:     577197  iMISS:      54668  dACCESS:     791882  dHIT:     653943  dMISS:     137939  itACCESS:          0  itHIT:          0  itMISS:          0  dtACCESS:          0  dtHIT:          0  dtMISS:          0
LLC RFO          ACCESS:     111616  HIT:      75963  MISS:      35653  iACCESS:          0  iHIT:          0  iMISS:          0  dACCESS:     111616  dHIT:      75963  dMISS:      35653  itACCESS:          0  itHIT:          0  itMISS:          0  dtACCESS:          0  dtHIT:          0  dtMISS:          0
LLC PREFETCH     ACCESS:    3473738  HIT:    2890622  MISS:     583116  iACCESS:    1760412  iHIT:    1558741  iMISS:     201671  dACCESS:    1713326  dHIT:    1331881  dMISS:     381445  itACCESS:          0  itHIT:          0  itMISS:          0  dtACCESS:          0  dtHIT:          0  dtMISS:          0
LLC WRITE        ACCESS:     143247  HIT:     133911  MISS:       9336  iACCESS:          0  iHIT:          0  iMISS:          0  dACCESS:     143247  dHIT:     133911  dMISS:       9336  itACCESS:          0  itHIT:          0  itMISS:          0  dtACCESS:          0  dtHIT:          0  dtMISS:          0
LLC TRANSLATION  ACCESS:      87542  HIT:      40039  MISS:      47503  iACCESS:          0  iHIT:          0  iMISS:          0  dACCESS:          0  dHIT:          0  dMISS:          0  itACCESS:      16464  itHIT:       5335  itMISS:      11129  dtACCESS:      71078  dtHIT:      34704  dtMISS:      36374
LLC PREFETCH  REQUESTED:          0  ISSUED:          0  CROSSED:          0  USEFUL:          0  USELESS:          0
LLC AVERAGE iMISS LATENCY: 42.9533 cycles
LLC AVERAGE dMISS LATENCY: 103.773 cycles
LLC AVERAGE itMISS LATENCY: 2.20389 cycles
LLC AVERAGE dtMISS LATENCY: 7.45904 cycles
LLC PAGE CROSSINGS (TLB HIT):         0 
LLC PAGE CROSSINGS (TLB MISS):         0 
LLC AVERAGE MISS LATENCY: 156.389 cycles

PageTableWalker TOTAL       ACCESS:      85440  
PageTableWalker AVERAGE LATENCY: 4.58842 cycles
PageTableWalker TOTAL LATENCY: 392034 cycles

DRAM Statistics
Channel 0
 RQ ROW_BUFFER_HIT:     245226
  ROW_BUFFER_MISS:     612975
 AVG DBUS CONGESTED CYCLE:     3.6305
 WQ ROW_BUFFER_HIT:      17136
  ROW_BUFFER_MISS:      21154  FULL:          0

