last_page:0x200000000000000
VMEM_RES_CAP:0x100000
PAGE_SIZE:4096
LOG2_PAGE_SIZE:12
LOG2_PAGE_TABLE_SIZE:9
page_table_levels:5
WARNING: physical memory size is smaller than virtual memory size
FDiP enabled with aggresivity 16

*** ChampSim Multicore Out-of-Order Simulator ***

Warmup Instructions: 50000000
Simulation Instructions: 100000000
Number of CPUs: 1
Small page size: 4096
Large page size: 2097152

CPU 0 Bimodal branch predictor
Basic BTB sets: 1024 ways: 8 indirect buffer size: 4096 RAS size: 64
Instruction page size distrubution: 0
Loading instruction page size distribution from /home/bsc/bsc018186/scratch/itp_asplos25_AE/dump/srv506_ap.pdst
Data page size distrubution: 0
Loading data page size distribution from /home/bsc/bsc018186/scratch/itp_asplos25_AE/dump/srv506_ap.pdst
cpu0_L2C IP-based stride prefetcher
cpu0_L1D next line prefetcher
cpu0_STLB using iTP with max lru@8
cpu0_STLB using iTP with instr@0 and data@2
Init sat counter with 3 bits (max:50).
cpu0_L1I next line prefetcher
Off-chip DRAM Size: 4 GiB Channels: 1 Width: 64-bit Data Rate: 3200 MT/s
Heartbeat CPU 0 instructions: 10000001 cycles: 2500140 heartbeat IPC: 3.99978 cumulative IPC: 3.99978 (Simulation time: 0 hr 0 min 37 sec) 
Heartbeat CPU 0 instructions: 20000000 cycles: 5000185 heartbeat IPC: 3.99993 cumulative IPC: 3.99986 (Simulation time: 0 hr 1 min 17 sec) 
Heartbeat CPU 0 instructions: 30000002 cycles: 7500230 heartbeat IPC: 3.99993 cumulative IPC: 3.99988 (Simulation time: 0 hr 1 min 57 sec) 
Heartbeat CPU 0 instructions: 40000000 cycles: 10000231 heartbeat IPC: 4 cumulative IPC: 3.99991 (Simulation time: 0 hr 2 min 37 sec) 
Heartbeat CPU 0 instructions: 50000001 cycles: 12500247 heartbeat IPC: 3.99998 cumulative IPC: 3.99993 (Simulation time: 0 hr 3 min 17 sec) 
Warmup finished CPU 0 instructions: 50000001 cycles: 12500248 cumulative IPC: 3.99993 (Simulation time: 0 hr 3 min 17 sec) 

Warmup complete CPU 0 instructions: 50000001 cycles: 12500248 (Simulation time: 0 hr 3 min 17 sec) 

Heartbeat CPU 0 instructions: 60000003 cycles: 27976727 heartbeat IPC: 0.646142 cumulative IPC: 0.646142 (Simulation time: 0 hr 4 min 22 sec) 
Heartbeat CPU 0 instructions: 70000001 cycles: 43386539 heartbeat IPC: 0.648938 cumulative IPC: 0.647537 (Simulation time: 0 hr 5 min 27 sec) 
Heartbeat CPU 0 instructions: 80000001 cycles: 59675406 heartbeat IPC: 0.613917 cumulative IPC: 0.635928 (Simulation time: 0 hr 6 min 33 sec) 
Heartbeat CPU 0 instructions: 90000001 cycles: 74710243 heartbeat IPC: 0.665122 cumulative IPC: 0.642984 (Simulation time: 0 hr 7 min 39 sec) 
Heartbeat CPU 0 instructions: 100000003 cycles: 90017199 heartbeat IPC: 0.653298 cumulative IPC: 0.645021 (Simulation time: 0 hr 8 min 45 sec) 
*** Reached end of trace: /gpfs/projects/bsc18/MN4/bsc18/romol/ChampSim/traces/qualcomm_srv/srv506_ap.champsimtrace.xz
Heartbeat CPU 0 instructions: 110000001 cycles: 105565538 heartbeat IPC: 0.643156 cumulative IPC: 0.644709 (Simulation time: 0 hr 9 min 52 sec) 
Heartbeat CPU 0 instructions: 120000003 cycles: 120828495 heartbeat IPC: 0.655182 cumulative IPC: 0.646185 (Simulation time: 0 hr 10 min 58 sec) 
Heartbeat CPU 0 instructions: 130000000 cycles: 136012569 heartbeat IPC: 0.658585 cumulative IPC: 0.647709 (Simulation time: 0 hr 12 min 4 sec) 
Heartbeat CPU 0 instructions: 140000002 cycles: 150602830 heartbeat IPC: 0.685389 cumulative IPC: 0.65169 (Simulation time: 0 hr 13 min 10 sec) 
Heartbeat CPU 0 instructions: 150000000 cycles: 166469187 heartbeat IPC: 0.630265 cumulative IPC: 0.649482 (Simulation time: 0 hr 14 min 17 sec) 
Simulation finished CPU 0 instructions: 100000000 cycles: 153968943 cumulative IPC: 0.649482 (Simulation time: 0 hr 14 min 17 sec) 

Simulation complete CPU 0 instructions: 100000000 cycles: 153968943 (Simulation time: 0 hr 14 min 17 sec) 


ChampSim completed all CPUs

Saving instructions large page distribution to /home/bsc/bsc018186/scratch/itp_asplos25_AE/dump/srv506_ap.pdst...
Saving data large page distribution to /home/bsc/bsc018186/scratch/itp_asplos25_AE/dump/srv506_ap.pdst...
=== Simulation ===
CPU 0 runs /gpfs/projects/bsc18/MN4/bsc18/romol/ChampSim/traces/qualcomm_srv/srv506_ap.champsimtrace.xz

Region of Interest Statistics

CPU 0 cumulative IPC: 0.649482 instructions: 100000000 cycles: 153968943
CPU 0 Branch Prediction Accuracy: 82.859% MPKI: 30.6843 Average ROB Occupancy at Mispredict: 12.6546
Branch type MPKI
BRANCH_DIRECT_JUMP: 1.03521
BRANCH_INDIRECT: 15.6921
BRANCH_CONDITIONAL: 10.1968
BRANCH_DIRECT_CALL: 1.88253
BRANCH_INDIRECT_CALL: 0.530291
BRANCH_RETURN: 1.34748

Instructions large pages: 0
Instructions small pages: 1084
Large page distribution for instructions: 0%

Data large pages: 0
Data small pages: 9900
Large page distribution for data: 0%

cpu0_L1I TOTAL       ACCESS:   35073680  HIT:   27232146  MISS:    7841534  iACCESS:   35073680  iHIT:   27232146  iMISS:    7841534  dACCESS:          0  dHIT:          0  dMISS:          0  itACCESS:          0  itHIT:          0  itMISS:          0  dtACCESS:          0  dtHIT:          0  dtMISS:          0
cpu0_L1I LOAD         ACCESS:   10285561  HIT:    8082020  MISS:    2203541  iACCESS:   10285561  iHIT:    8082020  iMISS:    2203541  dACCESS:          0  dHIT:          0  dMISS:          0  itACCESS:          0  itHIT:          0  itMISS:          0  dtACCESS:          0  dtHIT:          0  dtMISS:          0
cpu0_L1I RFO          ACCESS:          0  HIT:          0  MISS:          0  iACCESS:          0  iHIT:          0  iMISS:          0  dACCESS:          0  dHIT:          0  dMISS:          0  itACCESS:          0  itHIT:          0  itMISS:          0  dtACCESS:          0  dtHIT:          0  dtMISS:          0
cpu0_L1I PREFETCH     ACCESS:   24788119  HIT:   19150126  MISS:    5637993  iACCESS:   24788119  iHIT:   19150126  iMISS:    5637993  dACCESS:          0  dHIT:          0  dMISS:          0  itACCESS:          0  itHIT:          0  itMISS:          0  dtACCESS:          0  dtHIT:          0  dtMISS:          0
cpu0_L1I WRITE        ACCESS:          0  HIT:          0  MISS:          0  iACCESS:          0  iHIT:          0  iMISS:          0  dACCESS:          0  dHIT:          0  dMISS:          0  itACCESS:          0  itHIT:          0  itMISS:          0  dtACCESS:          0  dtHIT:          0  dtMISS:          0
cpu0_L1I TRANSLATION  ACCESS:          0  HIT:          0  MISS:          0  iACCESS:          0  iHIT:          0  iMISS:          0  dACCESS:          0  dHIT:          0  dMISS:          0  itACCESS:          0  itHIT:          0  itMISS:          0  dtACCESS:          0  dtHIT:          0  dtMISS:          0
cpu0_L1I PREFETCH  REQUESTED:   27329098  ISSUED:   27329098  CROSSED:          0  USEFUL:    1933984  USELESS:     630185
cpu0_L1I AVERAGE iMISS LATENCY: 13.1374 cycles
cpu0_L1I AVERAGE dMISS LATENCY: 0 cycles
cpu0_L1I AVERAGE itMISS LATENCY: 0 cycles
cpu0_L1I AVERAGE dtMISS LATENCY: 0 cycles
cpu0_L1I PAGE CROSSINGS (TLB HIT):         0 
cpu0_L1I PAGE CROSSINGS (TLB MISS):         0 
cpu0_L1I AVERAGE MISS LATENCY: 13.1374 cycles
cpu0_ITLB TOTAL       ACCESS:   29297263  HIT:   27350201  MISS:    1947062  iACCESS:   29297263  iHIT:   27350201  iMISS:    1947062  dACCESS:          0  dHIT:          0  dMISS:          0  itACCESS:          0  itHIT:          0  itMISS:          0  dtACCESS:          0  dtHIT:          0  dtMISS:          0
cpu0_ITLB LOAD         ACCESS:   29297263  HIT:   27350201  MISS:    1947062  iACCESS:   29297263  iHIT:   27350201  iMISS:    1947062  dACCESS:          0  dHIT:          0  dMISS:          0  itACCESS:          0  itHIT:          0  itMISS:          0  dtACCESS:          0  dtHIT:          0  dtMISS:          0
cpu0_ITLB RFO          ACCESS:          0  HIT:          0  MISS:          0  iACCESS:          0  iHIT:          0  iMISS:          0  dACCESS:          0  dHIT:          0  dMISS:          0  itACCESS:          0  itHIT:          0  itMISS:          0  dtACCESS:          0  dtHIT:          0  dtMISS:          0
cpu0_ITLB PREFETCH     ACCESS:          0  HIT:          0  MISS:          0  iACCESS:          0  iHIT:          0  iMISS:          0  dACCESS:          0  dHIT:          0  dMISS:          0  itACCESS:          0  itHIT:          0  itMISS:          0  dtACCESS:          0  dtHIT:          0  dtMISS:          0
cpu0_ITLB WRITE        ACCESS:          0  HIT:          0  MISS:          0  iACCESS:          0  iHIT:          0  iMISS:          0  dACCESS:          0  dHIT:          0  dMISS:          0  itACCESS:          0  itHIT:          0  itMISS:          0  dtACCESS:          0  dtHIT:          0  dtMISS:          0
cpu0_ITLB TRANSLATION  ACCESS:          0  HIT:          0  MISS:          0  iACCESS:          0  iHIT:          0  iMISS:          0  dACCESS:          0  dHIT:          0  dMISS:          0  itACCESS:          0  itHIT:          0  itMISS:          0  dtACCESS:          0  dtHIT:          0  dtMISS:          0
cpu0_ITLB PREFETCH  REQUESTED:          0  ISSUED:          0  CROSSED:          0  USEFUL:     316823  USELESS:      64521
cpu0_ITLB AVERAGE iMISS LATENCY: 2.25556 cycles
cpu0_ITLB AVERAGE dMISS LATENCY: 0 cycles
cpu0_ITLB AVERAGE itMISS LATENCY: 0 cycles
cpu0_ITLB AVERAGE dtMISS LATENCY: 0 cycles
cpu0_ITLB PAGE CROSSINGS (TLB HIT):         0 
cpu0_ITLB PAGE CROSSINGS (TLB MISS):         0 
cpu0_ITLB AVERAGE MISS LATENCY: 2.25556 cycles
cpu0_DTLB TOTAL       ACCESS:   27729113  HIT:   25673258  MISS:    2055855  iACCESS:          0  iHIT:          0  iMISS:          0  dACCESS:   27729113  dHIT:   25673258  dMISS:    2055855  itACCESS:          0  itHIT:          0  itMISS:          0  dtACCESS:          0  dtHIT:          0  dtMISS:          0
cpu0_DTLB LOAD         ACCESS:   27729113  HIT:   25673258  MISS:    2055855  iACCESS:          0  iHIT:          0  iMISS:          0  dACCESS:   27729113  dHIT:   25673258  dMISS:    2055855  itACCESS:          0  itHIT:          0  itMISS:          0  dtACCESS:          0  dtHIT:          0  dtMISS:          0
cpu0_DTLB RFO          ACCESS:          0  HIT:          0  MISS:          0  iACCESS:          0  iHIT:          0  iMISS:          0  dACCESS:          0  dHIT:          0  dMISS:          0  itACCESS:          0  itHIT:          0  itMISS:          0  dtACCESS:          0  dtHIT:          0  dtMISS:          0
cpu0_DTLB PREFETCH     ACCESS:          0  HIT:          0  MISS:          0  iACCESS:          0  iHIT:          0  iMISS:          0  dACCESS:          0  dHIT:          0  dMISS:          0  itACCESS:          0  itHIT:          0  itMISS:          0  dtACCESS:          0  dtHIT:          0  dtMISS:          0
cpu0_DTLB WRITE        ACCESS:          0  HIT:          0  MISS:          0  iACCESS:          0  iHIT:          0  iMISS:          0  dACCESS:          0  dHIT:          0  dMISS:          0  itACCESS:          0  itHIT:          0  itMISS:          0  dtACCESS:          0  dtHIT:          0  dtMISS:          0
cpu0_DTLB TRANSLATION  ACCESS:          0  HIT:          0  MISS:          0  iACCESS:          0  iHIT:          0  iMISS:          0  dACCESS:          0  dHIT:          0  dMISS:          0  itACCESS:          0  itHIT:          0  itMISS:          0  dtACCESS:          0  dtHIT:          0  dtMISS:          0
cpu0_DTLB PREFETCH  REQUESTED:          0  ISSUED:          0  CROSSED:          0  USEFUL:          0  USELESS:          0
cpu0_DTLB AVERAGE iMISS LATENCY: 0 cycles
cpu0_DTLB AVERAGE dMISS LATENCY: 16.9864 cycles
cpu0_DTLB AVERAGE itMISS LATENCY: 0 cycles
cpu0_DTLB AVERAGE dtMISS LATENCY: 0 cycles
cpu0_DTLB PAGE CROSSINGS (TLB HIT):         0 
cpu0_DTLB PAGE CROSSINGS (TLB MISS):         0 
cpu0_DTLB AVERAGE MISS LATENCY: 16.9864 cycles
cpu0_STLB TOTAL       ACCESS:    1628821  HIT:    1481273  MISS:     147548  iACCESS:     381356  iHIT:     371706  iMISS:       9650  dACCESS:    1247465  dHIT:    1109567  dMISS:     137898  itACCESS:          0  itHIT:          0  itMISS:          0  dtACCESS:          0  dtHIT:          0  dtMISS:          0
cpu0_STLB LOAD         ACCESS:    1628821  HIT:    1481273  MISS:     147548  iACCESS:     381356  iHIT:     371706  iMISS:       9650  dACCESS:    1247465  dHIT:    1109567  dMISS:     137898  itACCESS:          0  itHIT:          0  itMISS:          0  dtACCESS:          0  dtHIT:          0  dtMISS:          0
cpu0_STLB RFO          ACCESS:          0  HIT:          0  MISS:          0  iACCESS:          0  iHIT:          0  iMISS:          0  dACCESS:          0  dHIT:          0  dMISS:          0  itACCESS:          0  itHIT:          0  itMISS:          0  dtACCESS:          0  dtHIT:          0  dtMISS:          0
cpu0_STLB PREFETCH     ACCESS:          0  HIT:          0  MISS:          0  iACCESS:          0  iHIT:          0  iMISS:          0  dACCESS:          0  dHIT:          0  dMISS:          0  itACCESS:          0  itHIT:          0  itMISS:          0  dtACCESS:          0  dtHIT:          0  dtMISS:          0
cpu0_STLB WRITE        ACCESS:          0  HIT:          0  MISS:          0  iACCESS:          0  iHIT:          0  iMISS:          0  dACCESS:          0  dHIT:          0  dMISS:          0  itACCESS:          0  itHIT:          0  itMISS:          0  dtACCESS:          0  dtHIT:          0  dtMISS:          0
cpu0_STLB TRANSLATION  ACCESS:          0  HIT:          0  MISS:          0  iACCESS:          0  iHIT:          0  iMISS:          0  dACCESS:          0  dHIT:          0  dMISS:          0  itACCESS:          0  itHIT:          0  itMISS:          0  dtACCESS:          0  dtHIT:          0  dtMISS:          0
cpu0_STLB PREFETCH  REQUESTED:          0  ISSUED:          0  CROSSED:          0  USEFUL:          0  USELESS:          0
cpu0_STLB AVERAGE iMISS LATENCY: 9.70471 cycles
cpu0_STLB AVERAGE dMISS LATENCY: 169.122 cycles
cpu0_STLB AVERAGE itMISS LATENCY: 0 cycles
cpu0_STLB AVERAGE dtMISS LATENCY: 0 cycles
cpu0_STLB PAGE CROSSINGS (TLB HIT):         0 
cpu0_STLB PAGE CROSSINGS (TLB MISS):         0 
cpu0_STLB AVERAGE MISS LATENCY: 178.827 cycles
cpu0_L1D TOTAL       ACCESS:   41542750  HIT:   38006217  MISS:    3536533  iACCESS:          0  iHIT:          0  iMISS:          0  dACCESS:   41325855  dHIT:   37992797  dMISS:    3333058  itACCESS:      11319  itHIT:       1188  itMISS:      10131  dtACCESS:     205576  dtHIT:      12232  dtMISS:     193344
cpu0_L1D LOAD         ACCESS:   18954892  HIT:   17430505  MISS:    1524387  iACCESS:          0  iHIT:          0  iMISS:          0  dACCESS:   18954892  dHIT:   17430505  dMISS:    1524387  itACCESS:          0  itHIT:          0  itMISS:          0  dtACCESS:          0  dtHIT:          0  dtMISS:          0
cpu0_L1D RFO          ACCESS:          0  HIT:          0  MISS:          0  iACCESS:          0  iHIT:          0  iMISS:          0  dACCESS:          0  dHIT:          0  dMISS:          0  itACCESS:          0  itHIT:          0  itMISS:          0  dtACCESS:          0  dtHIT:          0  dtMISS:          0
cpu0_L1D PREFETCH     ACCESS:   12174453  HIT:   10803018  MISS:    1371435  iACCESS:          0  iHIT:          0  iMISS:          0  dACCESS:   12174453  dHIT:   10803018  dMISS:    1371435  itACCESS:          0  itHIT:          0  itMISS:          0  dtACCESS:          0  dtHIT:          0  dtMISS:          0
cpu0_L1D WRITE        ACCESS:   10196510  HIT:    9759274  MISS:     437236  iACCESS:          0  iHIT:          0  iMISS:          0  dACCESS:   10196510  dHIT:    9759274  dMISS:     437236  itACCESS:          0  itHIT:          0  itMISS:          0  dtACCESS:          0  dtHIT:          0  dtMISS:          0
cpu0_L1D TRANSLATION  ACCESS:     216895  HIT:      13420  MISS:     203475  iACCESS:          0  iHIT:          0  iMISS:          0  dACCESS:          0  dHIT:          0  dMISS:          0  itACCESS:      11319  itHIT:       1188  itMISS:      10131  dtACCESS:     205576  dtHIT:      12232  dtMISS:     193344
cpu0_L1D PREFETCH  REQUESTED:   18954892  ISSUED:   16964232  CROSSED:          0  USEFUL:     304371  USELESS:     701429
cpu0_L1D AVERAGE iMISS LATENCY: 0 cycles
cpu0_L1D AVERAGE dMISS LATENCY: 33.8354 cycles
cpu0_L1D AVERAGE itMISS LATENCY: 0.371188 cycles
cpu0_L1D AVERAGE dtMISS LATENCY: 6.29832 cycles
cpu0_L1D PAGE CROSSINGS (TLB HIT):         0 
cpu0_L1D PAGE CROSSINGS (TLB MISS):         0 
cpu0_L1D AVERAGE MISS LATENCY: 40.5049 cycles
cpu0_L2C TOTAL       ACCESS:    6998288  HIT:    4086901  MISS:    2911387  iACCESS:    3313574  iHIT:    2238960  iMISS:    1074614  dACCESS:    3490822  dHIT:    1814561  dMISS:    1676261  itACCESS:      10131  itHIT:       2039  itMISS:       8092  dtACCESS:     183761  dtHIT:      31341  dtMISS:     152420
cpu0_L2C LOAD         ACCESS:    1721644  HIT:    1042312  MISS:     679332  iACCESS:     788814  iHIT:     561038  iMISS:     227776  dACCESS:     932830  dHIT:     481274  dMISS:     451556  itACCESS:          0  itHIT:          0  itMISS:          0  dtACCESS:          0  dtHIT:          0  dtMISS:          0
cpu0_L2C RFO          ACCESS:     158671  HIT:      72694  MISS:      85977  iACCESS:          0  iHIT:          0  iMISS:          0  dACCESS:     158671  dHIT:      72694  dMISS:      85977  itACCESS:          0  itHIT:          0  itMISS:          0  dtACCESS:          0  dtHIT:          0  dtMISS:          0
cpu0_L2C PREFETCH     ACCESS:    4641747  HIT:    2657664  MISS:    1984083  iACCESS:    2524760  iHIT:    1677922  iMISS:     846838  dACCESS:    2116987  dHIT:     979742  dMISS:    1137245  itACCESS:          0  itHIT:          0  itMISS:          0  dtACCESS:          0  dtHIT:          0  dtMISS:          0
cpu0_L2C WRITE        ACCESS:     282334  HIT:     280851  MISS:       1483  iACCESS:          0  iHIT:          0  iMISS:          0  dACCESS:     282334  dHIT:     280851  dMISS:       1483  itACCESS:          0  itHIT:          0  itMISS:          0  dtACCESS:          0  dtHIT:          0  dtMISS:          0
cpu0_L2C TRANSLATION  ACCESS:     193892  HIT:      33380  MISS:     160512  iACCESS:          0  iHIT:          0  iMISS:          0  dACCESS:          0  dHIT:          0  dMISS:          0  itACCESS:      10131  itHIT:       2039  itMISS:       8092  dtACCESS:     183761  dtHIT:      31341  dtMISS:     152420
cpu0_L2C PREFETCH  REQUESTED:    1367882  ISSUED:    1367882  CROSSED:          0  USEFUL:     326426  USELESS:     228974
cpu0_L2C AVERAGE iMISS LATENCY: 25.0775 cycles
cpu0_L2C AVERAGE dMISS LATENCY: 48.4861 cycles
cpu0_L2C AVERAGE itMISS LATENCY: 0.416707 cycles
cpu0_L2C AVERAGE dtMISS LATENCY: 7.02559 cycles
cpu0_L2C PAGE CROSSINGS (TLB HIT):         0 
cpu0_L2C PAGE CROSSINGS (TLB MISS):         0 
cpu0_L2C AVERAGE MISS LATENCY: 81.0058 cycles
LLC TOTAL       ACCESS:    2935959  HIT:    1802457  MISS:    1133502  iACCESS:    1020177  iHIT:     665964  iMISS:     354213  dACCESS:    1755270  dHIT:    1078759  dMISS:     676511  itACCESS:       8092  itHIT:       2067  itMISS:       6025  dtACCESS:     152420  dtHIT:      55667  dtMISS:      96753
LLC LOAD         ACCESS:     676996  HIT:     428584  MISS:     248412  iACCESS:     226590  iHIT:     151538  iMISS:      75052  dACCESS:     450406  dHIT:     277046  dMISS:     173360  itACCESS:          0  itHIT:          0  itMISS:          0  dtACCESS:          0  dtHIT:          0  dtMISS:          0
LLC RFO          ACCESS:      85958  HIT:      45543  MISS:      40415  iACCESS:          0  iHIT:          0  iMISS:          0  dACCESS:      85958  dHIT:      45543  dMISS:      40415  itACCESS:          0  itHIT:          0  itMISS:          0  dtACCESS:          0  dtHIT:          0  dtMISS:          0
LLC PREFETCH     ACCESS:    1876735  HIT:    1142000  MISS:     734735  iACCESS:     793587  iHIT:     514426  iMISS:     279161  dACCESS:    1083148  dHIT:     627574  dMISS:     455574  itACCESS:          0  itHIT:          0  itMISS:          0  dtACCESS:          0  dtHIT:          0  dtMISS:          0
LLC WRITE        ACCESS:     135758  HIT:     128596  MISS:       7162  iACCESS:          0  iHIT:          0  iMISS:          0  dACCESS:     135758  dHIT:     128596  dMISS:       7162  itACCESS:          0  itHIT:          0  itMISS:          0  dtACCESS:          0  dtHIT:          0  dtMISS:          0
LLC TRANSLATION  ACCESS:     160512  HIT:      57734  MISS:     102778  iACCESS:          0  iHIT:          0  iMISS:          0  dACCESS:          0  dHIT:          0  dMISS:          0  itACCESS:       8092  itHIT:       2067  itMISS:       6025  dtACCESS:     152420  dtHIT:      55667  dtMISS:      96753
LLC PREFETCH  REQUESTED:          0  ISSUED:          0  CROSSED:          0  USEFUL:          0  USELESS:          0
LLC AVERAGE iMISS LATENCY: 46.9106 cycles
LLC AVERAGE dMISS LATENCY: 97.0009 cycles
LLC AVERAGE itMISS LATENCY: 0.929815 cycles
LLC AVERAGE dtMISS LATENCY: 15.4123 cycles
LLC PAGE CROSSINGS (TLB HIT):         0 
LLC PAGE CROSSINGS (TLB MISS):         0 
LLC AVERAGE MISS LATENCY: 160.254 cycles

PageTableWalker TOTAL       ACCESS:      73322  
PageTableWalker AVERAGE LATENCY: 5.75649 cycles
PageTableWalker TOTAL LATENCY: 422077 cycles

DRAM Statistics
Channel 0
 RQ ROW_BUFFER_HIT:     300811
  ROW_BUFFER_MISS:     824780
 AVG DBUS CONGESTED CYCLE:    3.62738
 WQ ROW_BUFFER_HIT:      21822
  ROW_BUFFER_MISS:      21494  FULL:          0

