last_page:0x200000000000000
VMEM_RES_CAP:0x100000
PAGE_SIZE:4096
LOG2_PAGE_SIZE:12
LOG2_PAGE_TABLE_SIZE:9
page_table_levels:5
WARNING: physical memory size is smaller than virtual memory size
FDiP enabled with aggresivity 16

*** ChampSim Multicore Out-of-Order Simulator ***

Warmup Instructions: 50000000
Simulation Instructions: 100000000
Number of CPUs: 1
Small page size: 4096
Large page size: 2097152

CPU 0 Bimodal branch predictor
Basic BTB sets: 1024 ways: 8 indirect buffer size: 4096 RAS size: 64
Instruction page size distrubution: 0
Loading instruction page size distribution from /home/bsc/bsc018186/scratch/itp_asplos25_AE/dump/srv540_ap.pdst
Data page size distrubution: 0
Loading data page size distribution from /home/bsc/bsc018186/scratch/itp_asplos25_AE/dump/srv540_ap.pdst
cpu0_L2C IP-based stride prefetcher
cpu0_L2C is using PTP replacement policy:
	TLB_STRESS_THRESHOLD:0
	PTE_EVICTION_RATIO:0
cpu0_L1D next line prefetcher
CHiRPing...
cpu0_L1I next line prefetcher
Off-chip DRAM Size: 4 GiB Channels: 1 Width: 64-bit Data Rate: 3200 MT/s
Heartbeat CPU 0 instructions: 10000001 cycles: 2500158 heartbeat IPC: 3.99975 cumulative IPC: 3.99975 (Simulation time: 0 hr 0 min 38 sec) 
Heartbeat CPU 0 instructions: 20000002 cycles: 5000321 heartbeat IPC: 3.99974 cumulative IPC: 3.99975 (Simulation time: 0 hr 1 min 17 sec) 
Heartbeat CPU 0 instructions: 30000002 cycles: 7500411 heartbeat IPC: 3.99986 cumulative IPC: 3.99979 (Simulation time: 0 hr 1 min 57 sec) 
Heartbeat CPU 0 instructions: 40000000 cycles: 10000465 heartbeat IPC: 3.99992 cumulative IPC: 3.99982 (Simulation time: 0 hr 2 min 38 sec) 
Heartbeat CPU 0 instructions: 50000002 cycles: 12500530 heartbeat IPC: 3.9999 cumulative IPC: 3.99984 (Simulation time: 0 hr 3 min 19 sec) 
Warmup finished CPU 0 instructions: 50000002 cycles: 12500531 cumulative IPC: 3.99984 (Simulation time: 0 hr 3 min 19 sec) 

Warmup complete CPU 0 instructions: 50000002 cycles: 12500531 (Simulation time: 0 hr 3 min 19 sec) 

Heartbeat CPU 0 instructions: 60000001 cycles: 30944136 heartbeat IPC: 0.542194 cumulative IPC: 0.542194 (Simulation time: 0 hr 4 min 31 sec) 
Heartbeat CPU 0 instructions: 70000002 cycles: 51147747 heartbeat IPC: 0.494962 cumulative IPC: 0.517502 (Simulation time: 0 hr 5 min 44 sec) 
Heartbeat CPU 0 instructions: 80000000 cycles: 70469452 heartbeat IPC: 0.517553 cumulative IPC: 0.517519 (Simulation time: 0 hr 6 min 57 sec) 
Heartbeat CPU 0 instructions: 90000001 cycles: 91614865 heartbeat IPC: 0.472916 cumulative IPC: 0.505598 (Simulation time: 0 hr 8 min 12 sec) 
Heartbeat CPU 0 instructions: 100000000 cycles: 112187086 heartbeat IPC: 0.486093 cumulative IPC: 0.501573 (Simulation time: 0 hr 9 min 27 sec) 
*** Reached end of trace: /gpfs/projects/bsc18/MN4/bsc18/romol/ChampSim/traces/qualcomm_srv/srv540_ap.champsimtrace.xz
Heartbeat CPU 0 instructions: 110000004 cycles: 133779192 heartbeat IPC: 0.463133 cumulative IPC: 0.494729 (Simulation time: 0 hr 10 min 42 sec) 
Heartbeat CPU 0 instructions: 120000002 cycles: 155019419 heartbeat IPC: 0.470805 cumulative IPC: 0.491163 (Simulation time: 0 hr 11 min 58 sec) 
Heartbeat CPU 0 instructions: 130000001 cycles: 175831445 heartbeat IPC: 0.480492 cumulative IPC: 0.489804 (Simulation time: 0 hr 13 min 12 sec) 
Heartbeat CPU 0 instructions: 140000001 cycles: 196494319 heartbeat IPC: 0.48396 cumulative IPC: 0.489147 (Simulation time: 0 hr 14 min 25 sec) 
Heartbeat CPU 0 instructions: 150000003 cycles: 219041767 heartbeat IPC: 0.44351 cumulative IPC: 0.484165 (Simulation time: 0 hr 15 min 40 sec) 
Simulation finished CPU 0 instructions: 100000001 cycles: 206541237 cumulative IPC: 0.484165 (Simulation time: 0 hr 15 min 40 sec) 

Simulation complete CPU 0 instructions: 100000001 cycles: 206541237 (Simulation time: 0 hr 15 min 40 sec) 


ChampSim completed all CPUs

Saving instructions large page distribution to /home/bsc/bsc018186/scratch/itp_asplos25_AE/dump/srv540_ap.pdst...
Saving data large page distribution to /home/bsc/bsc018186/scratch/itp_asplos25_AE/dump/srv540_ap.pdst...
=== Simulation ===
CPU 0 runs /gpfs/projects/bsc18/MN4/bsc18/romol/ChampSim/traces/qualcomm_srv/srv540_ap.champsimtrace.xz

Region of Interest Statistics

CPU 0 cumulative IPC: 0.484165 instructions: 100000001 cycles: 206541237
CPU 0 Branch Prediction Accuracy: 79.5913% MPKI: 36.6946 Average ROB Occupancy at Mispredict: 10.3783
Branch type MPKI
BRANCH_DIRECT_JUMP: 1.38632
BRANCH_INDIRECT: 18.7731
BRANCH_CONDITIONAL: 11.5695
BRANCH_DIRECT_CALL: 2.50793
BRANCH_INDIRECT_CALL: 0.65848
BRANCH_RETURN: 1.7994

Instructions large pages: 0
Instructions small pages: 1131
Large page distribution for instructions: 0%

Data large pages: 0
Data small pages: 4967
Large page distribution for data: 0%

cpu0_L1I TOTAL       ACCESS:   35890987  HIT:   27794368  MISS:    8096619  iACCESS:   35890987  iHIT:   27794368  iMISS:    8096619  dACCESS:          0  dHIT:          0  dMISS:          0  itACCESS:          0  itHIT:          0  itMISS:          0  dtACCESS:          0  dtHIT:          0  dtMISS:          0
cpu0_L1I LOAD         ACCESS:   10431291  HIT:    8213505  MISS:    2217786  iACCESS:   10431291  iHIT:    8213505  iMISS:    2217786  dACCESS:          0  dHIT:          0  dMISS:          0  itACCESS:          0  itHIT:          0  itMISS:          0  dtACCESS:          0  dtHIT:          0  dtMISS:          0
cpu0_L1I RFO          ACCESS:          0  HIT:          0  MISS:          0  iACCESS:          0  iHIT:          0  iMISS:          0  dACCESS:          0  dHIT:          0  dMISS:          0  itACCESS:          0  itHIT:          0  itMISS:          0  dtACCESS:          0  dtHIT:          0  dtMISS:          0
cpu0_L1I PREFETCH     ACCESS:   25459696  HIT:   19580863  MISS:    5878833  iACCESS:   25459696  iHIT:   19580863  iMISS:    5878833  dACCESS:          0  dHIT:          0  dMISS:          0  itACCESS:          0  itHIT:          0  itMISS:          0  dtACCESS:          0  dtHIT:          0  dtMISS:          0
cpu0_L1I WRITE        ACCESS:          0  HIT:          0  MISS:          0  iACCESS:          0  iHIT:          0  iMISS:          0  dACCESS:          0  dHIT:          0  dMISS:          0  itACCESS:          0  itHIT:          0  itMISS:          0  dtACCESS:          0  dtHIT:          0  dtMISS:          0
cpu0_L1I TRANSLATION  ACCESS:          0  HIT:          0  MISS:          0  iACCESS:          0  iHIT:          0  iMISS:          0  dACCESS:          0  dHIT:          0  dMISS:          0  itACCESS:          0  itHIT:          0  itMISS:          0  dtACCESS:          0  dtHIT:          0  dtMISS:          0
cpu0_L1I PREFETCH  REQUESTED:   27911525  ISSUED:   27911399  CROSSED:          0  USEFUL:    2008486  USELESS:     655674
cpu0_L1I AVERAGE iMISS LATENCY: 19.9573 cycles
cpu0_L1I AVERAGE dMISS LATENCY: 0 cycles
cpu0_L1I AVERAGE itMISS LATENCY: 0 cycles
cpu0_L1I AVERAGE dtMISS LATENCY: 0 cycles
cpu0_L1I PAGE CROSSINGS (TLB HIT):         0 
cpu0_L1I PAGE CROSSINGS (TLB MISS):         0 
cpu0_L1I AVERAGE MISS LATENCY: 19.9573 cycles
cpu0_ITLB TOTAL       ACCESS:   30140640  HIT:   28212599  MISS:    1928041  iACCESS:   30140640  iHIT:   28212599  iMISS:    1928041  dACCESS:          0  dHIT:          0  dMISS:          0  itACCESS:          0  itHIT:          0  itMISS:          0  dtACCESS:          0  dtHIT:          0  dtMISS:          0
cpu0_ITLB LOAD         ACCESS:   30140640  HIT:   28212599  MISS:    1928041  iACCESS:   30140640  iHIT:   28212599  iMISS:    1928041  dACCESS:          0  dHIT:          0  dMISS:          0  itACCESS:          0  itHIT:          0  itMISS:          0  dtACCESS:          0  dtHIT:          0  dtMISS:          0
cpu0_ITLB RFO          ACCESS:          0  HIT:          0  MISS:          0  iACCESS:          0  iHIT:          0  iMISS:          0  dACCESS:          0  dHIT:          0  dMISS:          0  itACCESS:          0  itHIT:          0  itMISS:          0  dtACCESS:          0  dtHIT:          0  dtMISS:          0
cpu0_ITLB PREFETCH     ACCESS:          0  HIT:          0  MISS:          0  iACCESS:          0  iHIT:          0  iMISS:          0  dACCESS:          0  dHIT:          0  dMISS:          0  itACCESS:          0  itHIT:          0  itMISS:          0  dtACCESS:          0  dtHIT:          0  dtMISS:          0
cpu0_ITLB WRITE        ACCESS:          0  HIT:          0  MISS:          0  iACCESS:          0  iHIT:          0  iMISS:          0  dACCESS:          0  dHIT:          0  dMISS:          0  itACCESS:          0  itHIT:          0  itMISS:          0  dtACCESS:          0  dtHIT:          0  dtMISS:          0
cpu0_ITLB TRANSLATION  ACCESS:          0  HIT:          0  MISS:          0  iACCESS:          0  iHIT:          0  iMISS:          0  dACCESS:          0  dHIT:          0  dMISS:          0  itACCESS:          0  itHIT:          0  itMISS:          0  dtACCESS:          0  dtHIT:          0  dtMISS:          0
cpu0_ITLB PREFETCH  REQUESTED:          0  ISSUED:          0  CROSSED:          0  USEFUL:     329234  USELESS:      64477
cpu0_ITLB AVERAGE iMISS LATENCY: 6.45726 cycles
cpu0_ITLB AVERAGE dMISS LATENCY: 0 cycles
cpu0_ITLB AVERAGE itMISS LATENCY: 0 cycles
cpu0_ITLB AVERAGE dtMISS LATENCY: 0 cycles
cpu0_ITLB PAGE CROSSINGS (TLB HIT):         0 
cpu0_ITLB PAGE CROSSINGS (TLB MISS):         0 
cpu0_ITLB AVERAGE MISS LATENCY: 6.45726 cycles
cpu0_DTLB TOTAL       ACCESS:   28106785  HIT:   26077693  MISS:    2029092  iACCESS:          0  iHIT:          0  iMISS:          0  dACCESS:   28106785  dHIT:   26077693  dMISS:    2029092  itACCESS:          0  itHIT:          0  itMISS:          0  dtACCESS:          0  dtHIT:          0  dtMISS:          0
cpu0_DTLB LOAD         ACCESS:   28106785  HIT:   26077693  MISS:    2029092  iACCESS:          0  iHIT:          0  iMISS:          0  dACCESS:   28106785  dHIT:   26077693  dMISS:    2029092  itACCESS:          0  itHIT:          0  itMISS:          0  dtACCESS:          0  dtHIT:          0  dtMISS:          0
cpu0_DTLB RFO          ACCESS:          0  HIT:          0  MISS:          0  iACCESS:          0  iHIT:          0  iMISS:          0  dACCESS:          0  dHIT:          0  dMISS:          0  itACCESS:          0  itHIT:          0  itMISS:          0  dtACCESS:          0  dtHIT:          0  dtMISS:          0
cpu0_DTLB PREFETCH     ACCESS:          0  HIT:          0  MISS:          0  iACCESS:          0  iHIT:          0  iMISS:          0  dACCESS:          0  dHIT:          0  dMISS:          0  itACCESS:          0  itHIT:          0  itMISS:          0  dtACCESS:          0  dtHIT:          0  dtMISS:          0
cpu0_DTLB WRITE        ACCESS:          0  HIT:          0  MISS:          0  iACCESS:          0  iHIT:          0  iMISS:          0  dACCESS:          0  dHIT:          0  dMISS:          0  itACCESS:          0  itHIT:          0  itMISS:          0  dtACCESS:          0  dtHIT:          0  dtMISS:          0
cpu0_DTLB TRANSLATION  ACCESS:          0  HIT:          0  MISS:          0  iACCESS:          0  iHIT:          0  iMISS:          0  dACCESS:          0  dHIT:          0  dMISS:          0  itACCESS:          0  itHIT:          0  itMISS:          0  dtACCESS:          0  dtHIT:          0  dtMISS:          0
cpu0_DTLB PREFETCH  REQUESTED:          0  ISSUED:          0  CROSSED:          0  USEFUL:          0  USELESS:          0
cpu0_DTLB AVERAGE iMISS LATENCY: 0 cycles
cpu0_DTLB AVERAGE dMISS LATENCY: 16.5739 cycles
cpu0_DTLB AVERAGE itMISS LATENCY: 0 cycles
cpu0_DTLB AVERAGE dtMISS LATENCY: 0 cycles
cpu0_DTLB PAGE CROSSINGS (TLB HIT):         0 
cpu0_DTLB PAGE CROSSINGS (TLB MISS):         0 
cpu0_DTLB AVERAGE MISS LATENCY: 16.5739 cycles
cpu0_STLB TOTAL       ACCESS:    1625951  HIT:    1378824  MISS:     247127  iACCESS:     393718  iHIT:     302641  iMISS:      91077  dACCESS:    1232233  dHIT:    1076183  dMISS:     156050  itACCESS:          0  itHIT:          0  itMISS:          0  dtACCESS:          0  dtHIT:          0  dtMISS:          0
cpu0_STLB LOAD         ACCESS:    1625951  HIT:    1378824  MISS:     247127  iACCESS:     393718  iHIT:     302641  iMISS:      91077  dACCESS:    1232233  dHIT:    1076183  dMISS:     156050  itACCESS:          0  itHIT:          0  itMISS:          0  dtACCESS:          0  dtHIT:          0  dtMISS:          0
cpu0_STLB RFO          ACCESS:          0  HIT:          0  MISS:          0  iACCESS:          0  iHIT:          0  iMISS:          0  dACCESS:          0  dHIT:          0  dMISS:          0  itACCESS:          0  itHIT:          0  itMISS:          0  dtACCESS:          0  dtHIT:          0  dtMISS:          0
cpu0_STLB PREFETCH     ACCESS:          0  HIT:          0  MISS:          0  iACCESS:          0  iHIT:          0  iMISS:          0  dACCESS:          0  dHIT:          0  dMISS:          0  itACCESS:          0  itHIT:          0  itMISS:          0  dtACCESS:          0  dtHIT:          0  dtMISS:          0
cpu0_STLB WRITE        ACCESS:          0  HIT:          0  MISS:          0  iACCESS:          0  iHIT:          0  iMISS:          0  dACCESS:          0  dHIT:          0  dMISS:          0  itACCESS:          0  itHIT:          0  itMISS:          0  dtACCESS:          0  dtHIT:          0  dtMISS:          0
cpu0_STLB TRANSLATION  ACCESS:          0  HIT:          0  MISS:          0  iACCESS:          0  iHIT:          0  iMISS:          0  dACCESS:          0  dHIT:          0  dMISS:          0  itACCESS:          0  itHIT:          0  itMISS:          0  dtACCESS:          0  dtHIT:          0  dtMISS:          0
cpu0_STLB PREFETCH  REQUESTED:          0  ISSUED:          0  CROSSED:          0  USEFUL:          0  USELESS:          0
cpu0_STLB AVERAGE iMISS LATENCY: 37.6587 cycles
cpu0_STLB AVERAGE dMISS LATENCY: 96.1773 cycles
cpu0_STLB AVERAGE itMISS LATENCY: 0 cycles
cpu0_STLB AVERAGE dtMISS LATENCY: 0 cycles
cpu0_STLB PAGE CROSSINGS (TLB HIT):         0 
cpu0_STLB PAGE CROSSINGS (TLB MISS):         0 
cpu0_STLB AVERAGE MISS LATENCY: 133.836 cycles
cpu0_L1D TOTAL       ACCESS:   43490881  HIT:   38720079  MISS:    4770802  iACCESS:          0  iHIT:          0  iMISS:          0  dACCESS:   43181204  dHIT:   38695074  dMISS:    4486130  itACCESS:      97293  itHIT:      12857  itMISS:      84436  dtACCESS:     212384  dtHIT:      12148  dtMISS:     200236
cpu0_L1D LOAD         ACCESS:   19807555  HIT:   17726514  MISS:    2081041  iACCESS:          0  iHIT:          0  iMISS:          0  dACCESS:   19807555  dHIT:   17726514  dMISS:    2081041  itACCESS:          0  itHIT:          0  itMISS:          0  dtACCESS:          0  dtHIT:          0  dtMISS:          0
cpu0_L1D RFO          ACCESS:          0  HIT:          0  MISS:          0  iACCESS:          0  iHIT:          0  iMISS:          0  dACCESS:          0  dHIT:          0  dMISS:          0  itACCESS:          0  itHIT:          0  itMISS:          0  dtACCESS:          0  dtHIT:          0  dtMISS:          0
cpu0_L1D PREFETCH     ACCESS:   13266240  HIT:   11323007  MISS:    1943233  iACCESS:          0  iHIT:          0  iMISS:          0  dACCESS:   13266240  dHIT:   11323007  dMISS:    1943233  itACCESS:          0  itHIT:          0  itMISS:          0  dtACCESS:          0  dtHIT:          0  dtMISS:          0
cpu0_L1D WRITE        ACCESS:   10107409  HIT:    9645553  MISS:     461856  iACCESS:          0  iHIT:          0  iMISS:          0  dACCESS:   10107409  dHIT:    9645553  dMISS:     461856  itACCESS:          0  itHIT:          0  itMISS:          0  dtACCESS:          0  dtHIT:          0  dtMISS:          0
cpu0_L1D TRANSLATION  ACCESS:     309677  HIT:      25005  MISS:     284672  iACCESS:          0  iHIT:          0  iMISS:          0  dACCESS:          0  dHIT:          0  dMISS:          0  itACCESS:      97293  itHIT:      12857  itMISS:      84436  dtACCESS:     212384  dtHIT:      12148  dtMISS:     200236
cpu0_L1D PREFETCH  REQUESTED:   19807555  ISSUED:   17568831  CROSSED:          0  USEFUL:     320685  USELESS:     736786
cpu0_L1D AVERAGE iMISS LATENCY: 0 cycles
cpu0_L1D AVERAGE dMISS LATENCY: 39.0306 cycles
cpu0_L1D AVERAGE itMISS LATENCY: 1.78646 cycles
cpu0_L1D AVERAGE dtMISS LATENCY: 4.54061 cycles
cpu0_L1D PAGE CROSSINGS (TLB HIT):         0 
cpu0_L1D PAGE CROSSINGS (TLB MISS):         0 
cpu0_L1D AVERAGE MISS LATENCY: 45.3577 cycles
cpu0_L2C TOTAL       ACCESS:    7443636  HIT:    2541587  MISS:    4902049  iACCESS:    3389953  iHIT:    1377247  iMISS:    2012706  dACCESS:    3774128  dHIT:    1055681  dMISS:    2718447  itACCESS:      84436  itHIT:      32684  itMISS:      51752  dtACCESS:     195119  dtHIT:      75975  dtMISS:     119144
cpu0_L2C LOAD         ACCESS:    1763873  HIT:     536550  MISS:    1227323  iACCESS:     763878  iHIT:     295670  iMISS:     468208  dACCESS:     999995  dHIT:     240880  dMISS:     759115  itACCESS:          0  itHIT:          0  itMISS:          0  dtACCESS:          0  dtHIT:          0  dtMISS:          0
cpu0_L2C RFO          ACCESS:     162712  HIT:      37440  MISS:     125272  iACCESS:          0  iHIT:          0  iMISS:          0  dACCESS:     162712  dHIT:      37440  dMISS:     125272  itACCESS:          0  itHIT:          0  itMISS:          0  dtACCESS:          0  dtHIT:          0  dtMISS:          0
cpu0_L2C PREFETCH     ACCESS:    4953405  HIT:    1677970  MISS:    3275435  iACCESS:    2626075  iHIT:    1081577  iMISS:    1544498  dACCESS:    2327330  dHIT:     596393  dMISS:    1730937  itACCESS:          0  itHIT:          0  itMISS:          0  dtACCESS:          0  dtHIT:          0  dtMISS:          0
cpu0_L2C WRITE        ACCESS:     284091  HIT:     180968  MISS:     103123  iACCESS:          0  iHIT:          0  iMISS:          0  dACCESS:     284091  dHIT:     180968  dMISS:     103123  itACCESS:          0  itHIT:          0  itMISS:          0  dtACCESS:          0  dtHIT:          0  dtMISS:          0
cpu0_L2C TRANSLATION  ACCESS:     279555  HIT:     108659  MISS:     170896  iACCESS:          0  iHIT:          0  iMISS:          0  dACCESS:          0  dHIT:          0  dMISS:          0  itACCESS:      84436  itHIT:      32684  itMISS:      51752  dtACCESS:     195119  dtHIT:      75975  dtMISS:     119144
cpu0_L2C PREFETCH  REQUESTED:    1535528  ISSUED:    1535526  CROSSED:          0  USEFUL:     406950  USELESS:     377008
cpu0_L2C AVERAGE iMISS LATENCY: 26.8584 cycles
cpu0_L2C AVERAGE dMISS LATENCY: 47.734 cycles
cpu0_L2C AVERAGE itMISS LATENCY: 1.57267 cycles
cpu0_L2C AVERAGE dtMISS LATENCY: 4.03479 cycles
cpu0_L2C PAGE CROSSINGS (TLB HIT):         0 
cpu0_L2C PAGE CROSSINGS (TLB MISS):         0 
cpu0_L2C AVERAGE MISS LATENCY: 80.1998 cycles
LLC TOTAL       ACCESS:    4809638  HIT:    2928601  MISS:    1881037  iACCESS:    1929103  iHIT:    1293791  iMISS:     635312  dACCESS:    2709639  dHIT:    1595347  dMISS:    1114292  itACCESS:      51752  itHIT:      13279  itMISS:      38473  dtACCESS:     119144  dtHIT:      26184  dtMISS:      92960
LLC LOAD         ACCESS:    1220960  HIT:     793205  MISS:     427755  iACCESS:     466456  iHIT:     333049  iMISS:     133407  dACCESS:     754504  dHIT:     460156  dMISS:     294348  itACCESS:          0  itHIT:          0  itMISS:          0  dtACCESS:          0  dtHIT:          0  dtMISS:          0
LLC RFO          ACCESS:     125269  HIT:      63185  MISS:      62084  iACCESS:          0  iHIT:          0  iMISS:          0  dACCESS:     125269  dHIT:      63185  dMISS:      62084  itACCESS:          0  itHIT:          0  itMISS:          0  dtACCESS:          0  dtHIT:          0  dtMISS:          0
LLC PREFETCH     ACCESS:    3090627  HIT:    1835839  MISS:    1254788  iACCESS:    1462647  iHIT:     960742  iMISS:     501905  dACCESS:    1627980  dHIT:     875097  dMISS:     752883  itACCESS:          0  itHIT:          0  itMISS:          0  dtACCESS:          0  dtHIT:          0  dtMISS:          0
LLC WRITE        ACCESS:     201886  HIT:     196909  MISS:       4977  iACCESS:          0  iHIT:          0  iMISS:          0  dACCESS:     201886  dHIT:     196909  dMISS:       4977  itACCESS:          0  itHIT:          0  itMISS:          0  dtACCESS:          0  dtHIT:          0  dtMISS:          0
LLC TRANSLATION  ACCESS:     170896  HIT:      39463  MISS:     131433  iACCESS:          0  iHIT:          0  iMISS:          0  dACCESS:          0  dHIT:          0  dMISS:          0  itACCESS:      51752  itHIT:      13279  itMISS:      38473  dtACCESS:     119144  dtHIT:      26184  dtMISS:      92960
LLC PREFETCH  REQUESTED:          0  ISSUED:          0  CROSSED:          0  USEFUL:          0  USELESS:          0
LLC AVERAGE iMISS LATENCY: 50.064 cycles
LLC AVERAGE dMISS LATENCY: 99.7664 cycles
LLC AVERAGE itMISS LATENCY: 3.55695 cycles
LLC AVERAGE dtMISS LATENCY: 9.26797 cycles
LLC PAGE CROSSINGS (TLB HIT):         0 
LLC PAGE CROSSINGS (TLB MISS):         0 
LLC AVERAGE MISS LATENCY: 162.656 cycles

PageTableWalker TOTAL       ACCESS:     125583  
PageTableWalker AVERAGE LATENCY: 3.84111 cycles
PageTableWalker TOTAL LATENCY: 482377 cycles

DRAM Statistics
Channel 0
 RQ ROW_BUFFER_HIT:     509817
  ROW_BUFFER_MISS:    1343816
 AVG DBUS CONGESTED CYCLE:    3.63505
 WQ ROW_BUFFER_HIT:      42600
  ROW_BUFFER_MISS:      34515  FULL:          0

