last_page:0x200000000000000
VMEM_RES_CAP:0x100000
PAGE_SIZE:4096
LOG2_PAGE_SIZE:12
LOG2_PAGE_TABLE_SIZE:9
page_table_levels:5
WARNING: physical memory size is smaller than virtual memory size
FDiP enabled with aggresivity 16

*** ChampSim Multicore Out-of-Order Simulator ***

Warmup Instructions: 50000000
Simulation Instructions: 100000000
Number of CPUs: 1
Small page size: 4096
Large page size: 2097152

CPU 0 Bimodal branch predictor
Basic BTB sets: 1024 ways: 8 indirect buffer size: 4096 RAS size: 64
Instruction page size distrubution: 0
Loading instruction page size distribution from /home/bsc/bsc018186/scratch/itp_asplos25_AE/dump/srv56_ap.pdst
Data page size distrubution: 0
Loading data page size distribution from /home/bsc/bsc018186/scratch/itp_asplos25_AE/dump/srv56_ap.pdst
cpu0_L2C IP-based stride prefetcher
cpu0_L2C is using PTP replacement policy:
	TLB_STRESS_THRESHOLD:0
	PTE_EVICTION_RATIO:0
cpu0_L1D next line prefetcher
cpu0_STLB using iTP with max lru@8
cpu0_STLB using iTP with instr@0 and data@2
Init sat counter with 3 bits (max:50).
cpu0_L1I next line prefetcher
Off-chip DRAM Size: 4 GiB Channels: 1 Width: 64-bit Data Rate: 3200 MT/s
Heartbeat CPU 0 instructions: 10000003 cycles: 2500266 heartbeat IPC: 3.99958 cumulative IPC: 3.99958 (Simulation time: 0 hr 0 min 42 sec) 
Heartbeat CPU 0 instructions: 20000003 cycles: 5000294 heartbeat IPC: 3.99996 cumulative IPC: 3.99977 (Simulation time: 0 hr 1 min 26 sec) 
Heartbeat CPU 0 instructions: 30000003 cycles: 7500313 heartbeat IPC: 3.99997 cumulative IPC: 3.99984 (Simulation time: 0 hr 2 min 10 sec) 
Heartbeat CPU 0 instructions: 40000001 cycles: 10000509 heartbeat IPC: 3.99969 cumulative IPC: 3.9998 (Simulation time: 0 hr 2 min 54 sec) 
Heartbeat CPU 0 instructions: 50000003 cycles: 12500654 heartbeat IPC: 3.99977 cumulative IPC: 3.9998 (Simulation time: 0 hr 3 min 36 sec) 
Warmup finished CPU 0 instructions: 50000003 cycles: 12500655 cumulative IPC: 3.9998 (Simulation time: 0 hr 3 min 36 sec) 

Warmup complete CPU 0 instructions: 50000003 cycles: 12500655 (Simulation time: 0 hr 3 min 36 sec) 

Heartbeat CPU 0 instructions: 60000000 cycles: 26911476 heartbeat IPC: 0.693923 cumulative IPC: 0.693923 (Simulation time: 0 hr 4 min 46 sec) 
Heartbeat CPU 0 instructions: 70000000 cycles: 41168952 heartbeat IPC: 0.701387 cumulative IPC: 0.697635 (Simulation time: 0 hr 5 min 57 sec) 
Heartbeat CPU 0 instructions: 80000004 cycles: 55822844 heartbeat IPC: 0.682413 cumulative IPC: 0.692486 (Simulation time: 0 hr 7 min 6 sec) 
Heartbeat CPU 0 instructions: 90000000 cycles: 70371655 heartbeat IPC: 0.687342 cumulative IPC: 0.691193 (Simulation time: 0 hr 8 min 14 sec) 
Heartbeat CPU 0 instructions: 100000001 cycles: 84234913 heartbeat IPC: 0.721332 cumulative IPC: 0.697018 (Simulation time: 0 hr 9 min 24 sec) 
*** Reached end of trace: /gpfs/projects/bsc18/MN4/bsc18/romol/ChampSim/traces/qualcomm_srv/srv56_ap.champsimtrace.xz
Heartbeat CPU 0 instructions: 110000001 cycles: 98601445 heartbeat IPC: 0.696063 cumulative IPC: 0.696858 (Simulation time: 0 hr 10 min 32 sec) 
Heartbeat CPU 0 instructions: 120000000 cycles: 112548154 heartbeat IPC: 0.717015 cumulative IPC: 0.699668 (Simulation time: 0 hr 11 min 35 sec) 
Heartbeat CPU 0 instructions: 130000000 cycles: 126481837 heartbeat IPC: 0.717686 cumulative IPC: 0.701871 (Simulation time: 0 hr 12 min 38 sec) 
Heartbeat CPU 0 instructions: 140000003 cycles: 141906754 heartbeat IPC: 0.648302 cumulative IPC: 0.695485 (Simulation time: 0 hr 13 min 43 sec) 
Heartbeat CPU 0 instructions: 150000002 cycles: 156080058 heartbeat IPC: 0.705552 cumulative IPC: 0.696479 (Simulation time: 0 hr 14 min 46 sec) 
Simulation finished CPU 0 instructions: 100000004 cycles: 143579405 cumulative IPC: 0.696479 (Simulation time: 0 hr 14 min 46 sec) 

Simulation complete CPU 0 instructions: 100000004 cycles: 143579405 (Simulation time: 0 hr 14 min 46 sec) 


ChampSim completed all CPUs

Saving instructions large page distribution to /home/bsc/bsc018186/scratch/itp_asplos25_AE/dump/srv56_ap.pdst...
Saving data large page distribution to /home/bsc/bsc018186/scratch/itp_asplos25_AE/dump/srv56_ap.pdst...
=== Simulation ===
CPU 0 runs /gpfs/projects/bsc18/MN4/bsc18/romol/ChampSim/traces/qualcomm_srv/srv56_ap.champsimtrace.xz

Region of Interest Statistics

CPU 0 cumulative IPC: 0.696479 instructions: 100000004 cycles: 143579405
CPU 0 Branch Prediction Accuracy: 82.5083% MPKI: 31.3359 Average ROB Occupancy at Mispredict: 12.8789
Branch type MPKI
BRANCH_DIRECT_JUMP: 1.06978
BRANCH_INDIRECT: 16.1898
BRANCH_CONDITIONAL: 10.2461
BRANCH_DIRECT_CALL: 1.92883
BRANCH_INDIRECT_CALL: 0.51639
BRANCH_RETURN: 1.38511

Instructions large pages: 0
Instructions small pages: 10539
Large page distribution for instructions: 0%

Data large pages: 0
Data small pages: 9572
Large page distribution for data: 0%

cpu0_L1I TOTAL       ACCESS:   35708071  HIT:   27267506  MISS:    8440565  iACCESS:   35708071  iHIT:   27267506  iMISS:    8440565  dACCESS:          0  dHIT:          0  dMISS:          0  itACCESS:          0  itHIT:          0  itMISS:          0  dtACCESS:          0  dtHIT:          0  dtMISS:          0
cpu0_L1I LOAD         ACCESS:   10452571  HIT:    8101102  MISS:    2351469  iACCESS:   10452571  iHIT:    8101102  iMISS:    2351469  dACCESS:          0  dHIT:          0  dMISS:          0  itACCESS:          0  itHIT:          0  itMISS:          0  dtACCESS:          0  dtHIT:          0  dtMISS:          0
cpu0_L1I RFO          ACCESS:          0  HIT:          0  MISS:          0  iACCESS:          0  iHIT:          0  iMISS:          0  dACCESS:          0  dHIT:          0  dMISS:          0  itACCESS:          0  itHIT:          0  itMISS:          0  dtACCESS:          0  dtHIT:          0  dtMISS:          0
cpu0_L1I PREFETCH     ACCESS:   25255500  HIT:   19166404  MISS:    6089096  iACCESS:   25255500  iHIT:   19166404  iMISS:    6089096  dACCESS:          0  dHIT:          0  dMISS:          0  itACCESS:          0  itHIT:          0  itMISS:          0  dtACCESS:          0  dtHIT:          0  dtMISS:          0
cpu0_L1I WRITE        ACCESS:          0  HIT:          0  MISS:          0  iACCESS:          0  iHIT:          0  iMISS:          0  dACCESS:          0  dHIT:          0  dMISS:          0  itACCESS:          0  itHIT:          0  itMISS:          0  dtACCESS:          0  dtHIT:          0  dtMISS:          0
cpu0_L1I TRANSLATION  ACCESS:          0  HIT:          0  MISS:          0  iACCESS:          0  iHIT:          0  iMISS:          0  dACCESS:          0  dHIT:          0  dMISS:          0  itACCESS:          0  itHIT:          0  itMISS:          0  dtACCESS:          0  dtHIT:          0  dtMISS:          0
cpu0_L1I PREFETCH  REQUESTED:   27527237  ISSUED:   27525029  CROSSED:          0  USEFUL:    1946022  USELESS:     625575
cpu0_L1I AVERAGE iMISS LATENCY: 13.7795 cycles
cpu0_L1I AVERAGE dMISS LATENCY: 0 cycles
cpu0_L1I AVERAGE itMISS LATENCY: 0 cycles
cpu0_L1I AVERAGE dtMISS LATENCY: 0 cycles
cpu0_L1I PAGE CROSSINGS (TLB HIT):         0 
cpu0_L1I PAGE CROSSINGS (TLB MISS):         0 
cpu0_L1I AVERAGE MISS LATENCY: 13.7795 cycles
cpu0_ITLB TOTAL       ACCESS:   29503550  HIT:   27588551  MISS:    1914999  iACCESS:   29503550  iHIT:   27588551  iMISS:    1914999  dACCESS:          0  dHIT:          0  dMISS:          0  itACCESS:          0  itHIT:          0  itMISS:          0  dtACCESS:          0  dtHIT:          0  dtMISS:          0
cpu0_ITLB LOAD         ACCESS:   29503550  HIT:   27588551  MISS:    1914999  iACCESS:   29503550  iHIT:   27588551  iMISS:    1914999  dACCESS:          0  dHIT:          0  dMISS:          0  itACCESS:          0  itHIT:          0  itMISS:          0  dtACCESS:          0  dtHIT:          0  dtMISS:          0
cpu0_ITLB RFO          ACCESS:          0  HIT:          0  MISS:          0  iACCESS:          0  iHIT:          0  iMISS:          0  dACCESS:          0  dHIT:          0  dMISS:          0  itACCESS:          0  itHIT:          0  itMISS:          0  dtACCESS:          0  dtHIT:          0  dtMISS:          0
cpu0_ITLB PREFETCH     ACCESS:          0  HIT:          0  MISS:          0  iACCESS:          0  iHIT:          0  iMISS:          0  dACCESS:          0  dHIT:          0  dMISS:          0  itACCESS:          0  itHIT:          0  itMISS:          0  dtACCESS:          0  dtHIT:          0  dtMISS:          0
cpu0_ITLB WRITE        ACCESS:          0  HIT:          0  MISS:          0  iACCESS:          0  iHIT:          0  iMISS:          0  dACCESS:          0  dHIT:          0  dMISS:          0  itACCESS:          0  itHIT:          0  itMISS:          0  dtACCESS:          0  dtHIT:          0  dtMISS:          0
cpu0_ITLB TRANSLATION  ACCESS:          0  HIT:          0  MISS:          0  iACCESS:          0  iHIT:          0  iMISS:          0  dACCESS:          0  dHIT:          0  dMISS:          0  itACCESS:          0  itHIT:          0  itMISS:          0  dtACCESS:          0  dtHIT:          0  dtMISS:          0
cpu0_ITLB PREFETCH  REQUESTED:          0  ISSUED:          0  CROSSED:          0  USEFUL:     317523  USELESS:      62748
cpu0_ITLB AVERAGE iMISS LATENCY: 1.99254 cycles
cpu0_ITLB AVERAGE dMISS LATENCY: 0 cycles
cpu0_ITLB AVERAGE itMISS LATENCY: 0 cycles
cpu0_ITLB AVERAGE dtMISS LATENCY: 0 cycles
cpu0_ITLB PAGE CROSSINGS (TLB HIT):         0 
cpu0_ITLB PAGE CROSSINGS (TLB MISS):         0 
cpu0_ITLB AVERAGE MISS LATENCY: 1.99254 cycles
cpu0_DTLB TOTAL       ACCESS:   27920177  HIT:   26071105  MISS:    1849072  iACCESS:          0  iHIT:          0  iMISS:          0  dACCESS:   27920177  dHIT:   26071105  dMISS:    1849072  itACCESS:          0  itHIT:          0  itMISS:          0  dtACCESS:          0  dtHIT:          0  dtMISS:          0
cpu0_DTLB LOAD         ACCESS:   27920177  HIT:   26071105  MISS:    1849072  iACCESS:          0  iHIT:          0  iMISS:          0  dACCESS:   27920177  dHIT:   26071105  dMISS:    1849072  itACCESS:          0  itHIT:          0  itMISS:          0  dtACCESS:          0  dtHIT:          0  dtMISS:          0
cpu0_DTLB RFO          ACCESS:          0  HIT:          0  MISS:          0  iACCESS:          0  iHIT:          0  iMISS:          0  dACCESS:          0  dHIT:          0  dMISS:          0  itACCESS:          0  itHIT:          0  itMISS:          0  dtACCESS:          0  dtHIT:          0  dtMISS:          0
cpu0_DTLB PREFETCH     ACCESS:          0  HIT:          0  MISS:          0  iACCESS:          0  iHIT:          0  iMISS:          0  dACCESS:          0  dHIT:          0  dMISS:          0  itACCESS:          0  itHIT:          0  itMISS:          0  dtACCESS:          0  dtHIT:          0  dtMISS:          0
cpu0_DTLB WRITE        ACCESS:          0  HIT:          0  MISS:          0  iACCESS:          0  iHIT:          0  iMISS:          0  dACCESS:          0  dHIT:          0  dMISS:          0  itACCESS:          0  itHIT:          0  itMISS:          0  dtACCESS:          0  dtHIT:          0  dtMISS:          0
cpu0_DTLB TRANSLATION  ACCESS:          0  HIT:          0  MISS:          0  iACCESS:          0  iHIT:          0  iMISS:          0  dACCESS:          0  dHIT:          0  dMISS:          0  itACCESS:          0  itHIT:          0  itMISS:          0  dtACCESS:          0  dtHIT:          0  dtMISS:          0
cpu0_DTLB PREFETCH  REQUESTED:          0  ISSUED:          0  CROSSED:          0  USEFUL:          0  USELESS:          0
cpu0_DTLB AVERAGE iMISS LATENCY: 0 cycles
cpu0_DTLB AVERAGE dMISS LATENCY: 10.5758 cycles
cpu0_DTLB AVERAGE itMISS LATENCY: 0 cycles
cpu0_DTLB AVERAGE dtMISS LATENCY: 0 cycles
cpu0_DTLB PAGE CROSSINGS (TLB HIT):         0 
cpu0_DTLB PAGE CROSSINGS (TLB MISS):         0 
cpu0_DTLB AVERAGE MISS LATENCY: 10.5758 cycles
cpu0_STLB TOTAL       ACCESS:    1526586  HIT:    1381226  MISS:     145360  iACCESS:     380283  iHIT:     371986  iMISS:       8297  dACCESS:    1146303  dHIT:    1009240  dMISS:     137063  itACCESS:          0  itHIT:          0  itMISS:          0  dtACCESS:          0  dtHIT:          0  dtMISS:          0
cpu0_STLB LOAD         ACCESS:    1526586  HIT:    1381226  MISS:     145360  iACCESS:     380283  iHIT:     371986  iMISS:       8297  dACCESS:    1146303  dHIT:    1009240  dMISS:     137063  itACCESS:          0  itHIT:          0  itMISS:          0  dtACCESS:          0  dtHIT:          0  dtMISS:          0
cpu0_STLB RFO          ACCESS:          0  HIT:          0  MISS:          0  iACCESS:          0  iHIT:          0  iMISS:          0  dACCESS:          0  dHIT:          0  dMISS:          0  itACCESS:          0  itHIT:          0  itMISS:          0  dtACCESS:          0  dtHIT:          0  dtMISS:          0
cpu0_STLB PREFETCH     ACCESS:          0  HIT:          0  MISS:          0  iACCESS:          0  iHIT:          0  iMISS:          0  dACCESS:          0  dHIT:          0  dMISS:          0  itACCESS:          0  itHIT:          0  itMISS:          0  dtACCESS:          0  dtHIT:          0  dtMISS:          0
cpu0_STLB WRITE        ACCESS:          0  HIT:          0  MISS:          0  iACCESS:          0  iHIT:          0  iMISS:          0  dACCESS:          0  dHIT:          0  dMISS:          0  itACCESS:          0  itHIT:          0  itMISS:          0  dtACCESS:          0  dtHIT:          0  dtMISS:          0
cpu0_STLB TRANSLATION  ACCESS:          0  HIT:          0  MISS:          0  iACCESS:          0  iHIT:          0  iMISS:          0  dACCESS:          0  dHIT:          0  dMISS:          0  itACCESS:          0  itHIT:          0  itMISS:          0  dtACCESS:          0  dtHIT:          0  dtMISS:          0
cpu0_STLB PREFETCH  REQUESTED:          0  ISSUED:          0  CROSSED:          0  USEFUL:          0  USELESS:          0
cpu0_STLB AVERAGE iMISS LATENCY: 5.96975 cycles
cpu0_STLB AVERAGE dMISS LATENCY: 71.391 cycles
cpu0_STLB AVERAGE itMISS LATENCY: 0 cycles
cpu0_STLB AVERAGE dtMISS LATENCY: 0 cycles
cpu0_STLB PAGE CROSSINGS (TLB HIT):         0 
cpu0_STLB PAGE CROSSINGS (TLB MISS):         0 
cpu0_STLB AVERAGE MISS LATENCY: 77.3607 cycles
cpu0_L1D TOTAL       ACCESS:   41728416  HIT:   38193878  MISS:    3534538  iACCESS:          0  iHIT:          0  iMISS:          0  dACCESS:   41510571  dHIT:   38180499  dMISS:    3330072  itACCESS:       9826  itHIT:        984  itMISS:       8842  dtACCESS:     208019  dtHIT:      12395  dtMISS:     195624
cpu0_L1D LOAD         ACCESS:   19133767  HIT:   17626987  MISS:    1506780  iACCESS:          0  iHIT:          0  iMISS:          0  dACCESS:   19133767  dHIT:   17626987  dMISS:    1506780  itACCESS:          0  itHIT:          0  itMISS:          0  dtACCESS:          0  dtHIT:          0  dtMISS:          0
cpu0_L1D RFO          ACCESS:          0  HIT:          0  MISS:          0  iACCESS:          0  iHIT:          0  iMISS:          0  dACCESS:          0  dHIT:          0  dMISS:          0  itACCESS:          0  itHIT:          0  itMISS:          0  dtACCESS:          0  dtHIT:          0  dtMISS:          0
cpu0_L1D PREFETCH     ACCESS:   12181517  HIT:   10795798  MISS:    1385719  iACCESS:          0  iHIT:          0  iMISS:          0  dACCESS:   12181517  dHIT:   10795798  dMISS:    1385719  itACCESS:          0  itHIT:          0  itMISS:          0  dtACCESS:          0  dtHIT:          0  dtMISS:          0
cpu0_L1D WRITE        ACCESS:   10195287  HIT:    9757714  MISS:     437573  iACCESS:          0  iHIT:          0  iMISS:          0  dACCESS:   10195287  dHIT:    9757714  dMISS:     437573  itACCESS:          0  itHIT:          0  itMISS:          0  dtACCESS:          0  dtHIT:          0  dtMISS:          0
cpu0_L1D TRANSLATION  ACCESS:     217845  HIT:      13379  MISS:     204466  iACCESS:          0  iHIT:          0  iMISS:          0  dACCESS:          0  dHIT:          0  dMISS:          0  itACCESS:       9826  itHIT:        984  itMISS:       8842  dtACCESS:     208019  dtHIT:      12395  dtMISS:     195624
cpu0_L1D PREFETCH  REQUESTED:   19133767  ISSUED:   16941007  CROSSED:          0  USEFUL:     308379  USELESS:     700039
cpu0_L1D AVERAGE iMISS LATENCY: 0 cycles
cpu0_L1D AVERAGE dMISS LATENCY: 35.5537 cycles
cpu0_L1D AVERAGE itMISS LATENCY: 0.219985 cycles
cpu0_L1D AVERAGE dtMISS LATENCY: 2.20039 cycles
cpu0_L1D PAGE CROSSINGS (TLB HIT):         0 
cpu0_L1D PAGE CROSSINGS (TLB MISS):         0 
cpu0_L1D AVERAGE MISS LATENCY: 37.9741 cycles
cpu0_L2C TOTAL       ACCESS:    7003195  HIT:    1239865  MISS:    5763330  iACCESS:    3301140  iHIT:     711614  iMISS:    2589526  dACCESS:    3510593  dHIT:     379607  dMISS:    3130986  itACCESS:       8842  itHIT:       3554  itMISS:       5288  dtACCESS:     182620  dtHIT:     145090  dtMISS:      37530
cpu0_L2C LOAD         ACCESS:    1693812  HIT:     128830  MISS:    1564982  iACCESS:     768605  iHIT:      96575  iMISS:     672030  dACCESS:     925207  dHIT:      32255  dMISS:     892952  itACCESS:          0  itHIT:          0  itMISS:          0  dtACCESS:          0  dtHIT:          0  dtMISS:          0
cpu0_L2C RFO          ACCESS:     158316  HIT:       7365  MISS:     150951  iACCESS:          0  iHIT:          0  iMISS:          0  dACCESS:     158316  dHIT:       7365  dMISS:     150951  itACCESS:          0  itHIT:          0  itMISS:          0  dtACCESS:          0  dtHIT:          0  dtMISS:          0
cpu0_L2C PREFETCH     ACCESS:    4680310  HIT:     903132  MISS:    3777178  iACCESS:    2532535  iHIT:     615039  iMISS:    1917496  dACCESS:    2147775  dHIT:     288093  dMISS:    1859682  itACCESS:          0  itHIT:          0  itMISS:          0  dtACCESS:          0  dtHIT:          0  dtMISS:          0
cpu0_L2C WRITE        ACCESS:     279295  HIT:      51894  MISS:     227401  iACCESS:          0  iHIT:          0  iMISS:          0  dACCESS:     279295  dHIT:      51894  dMISS:     227401  itACCESS:          0  itHIT:          0  itMISS:          0  dtACCESS:          0  dtHIT:          0  dtMISS:          0
cpu0_L2C TRANSLATION  ACCESS:     191462  HIT:     148644  MISS:      42818  iACCESS:          0  iHIT:          0  iMISS:          0  dACCESS:          0  dHIT:          0  dMISS:          0  itACCESS:       8842  itHIT:       3554  itMISS:       5288  dtACCESS:     182620  dtHIT:     145090  dtMISS:      37530
cpu0_L2C PREFETCH  REQUESTED:    1402846  ISSUED:    1402846  CROSSED:          0  USEFUL:     435803  USELESS:     390259
cpu0_L2C AVERAGE iMISS LATENCY: 14.7999 cycles
cpu0_L2C AVERAGE dMISS LATENCY: 25.3195 cycles
cpu0_L2C AVERAGE itMISS LATENCY: 0.120158 cycles
cpu0_L2C AVERAGE dtMISS LATENCY: 1.05621 cycles
cpu0_L2C PAGE CROSSINGS (TLB HIT):         0 
cpu0_L2C PAGE CROSSINGS (TLB MISS):         0 
cpu0_L2C AVERAGE MISS LATENCY: 41.2957 cycles
LLC TOTAL       ACCESS:    5682065  HIT:    4853080  MISS:     828985  iACCESS:    2534917  iHIT:    2288809  iMISS:     246108  dACCESS:    3104330  dHIT:    2554623  dMISS:     549707  itACCESS:       5288  itHIT:       1931  itMISS:       3357  dtACCESS:      37530  dtHIT:       7717  dtMISS:      29813
LLC LOAD         ACCESS:    1563072  HIT:    1367561  MISS:     195511  iACCESS:     670591  iHIT:     616461  iMISS:      54130  dACCESS:     892481  dHIT:     751100  dMISS:     141381  itACCESS:          0  itHIT:          0  itMISS:          0  dtACCESS:          0  dtHIT:          0  dtMISS:          0
LLC RFO          ACCESS:     150944  HIT:     110724  MISS:      40220  iACCESS:          0  iHIT:          0  iMISS:          0  dACCESS:     150944  dHIT:     110724  dMISS:      40220  itACCESS:          0  itHIT:          0  itMISS:          0  dtACCESS:          0  dtHIT:          0  dtMISS:          0
LLC PREFETCH     ACCESS:    3668498  HIT:    3108414  MISS:     560084  iACCESS:    1864326  iHIT:    1672348  iMISS:     191978  dACCESS:    1804172  dHIT:    1436066  dMISS:     368106  itACCESS:          0  itHIT:          0  itMISS:          0  dtACCESS:          0  dtHIT:          0  dtMISS:          0
LLC WRITE        ACCESS:     256733  HIT:     256733  MISS:          0  iACCESS:          0  iHIT:          0  iMISS:          0  dACCESS:     256733  dHIT:     256733  dMISS:          0  itACCESS:          0  itHIT:          0  itMISS:          0  dtACCESS:          0  dtHIT:          0  dtMISS:          0
LLC TRANSLATION  ACCESS:      42818  HIT:       9648  MISS:      33170  iACCESS:          0  iHIT:          0  iMISS:          0  dACCESS:          0  dHIT:          0  dMISS:          0  itACCESS:       5288  itHIT:       1931  itMISS:       3357  dtACCESS:      37530  dtHIT:       7717  dtMISS:      29813
LLC PREFETCH  REQUESTED:          0  ISSUED:          0  CROSSED:          0  USEFUL:          0  USELESS:          0
LLC AVERAGE iMISS LATENCY: 43.8925 cycles
LLC AVERAGE dMISS LATENCY: 109.75 cycles
LLC AVERAGE itMISS LATENCY: 0.710522 cycles
LLC AVERAGE dtMISS LATENCY: 6.44993 cycles
LLC PAGE CROSSINGS (TLB HIT):         0 
LLC PAGE CROSSINGS (TLB MISS):         0 
LLC AVERAGE MISS LATENCY: 160.803 cycles

PageTableWalker TOTAL       ACCESS:      72178  
PageTableWalker AVERAGE LATENCY: 4.61634 cycles
PageTableWalker TOTAL LATENCY: 333198 cycles

DRAM Statistics
Channel 0
 RQ ROW_BUFFER_HIT:     226744
  ROW_BUFFER_MISS:     602129
 AVG DBUS CONGESTED CYCLE:    3.63327
 WQ ROW_BUFFER_HIT:      20988
  ROW_BUFFER_MISS:      29431  FULL:          0

