last_page:0x200000000000000
VMEM_RES_CAP:0x100000
PAGE_SIZE:4096
LOG2_PAGE_SIZE:12
LOG2_PAGE_TABLE_SIZE:9
page_table_levels:5
WARNING: physical memory size is smaller than virtual memory size
FDiP enabled with aggresivity 16

*** ChampSim Multicore Out-of-Order Simulator ***

Warmup Instructions: 50000000
Simulation Instructions: 100000000
Number of CPUs: 1
Small page size: 4096
Large page size: 2097152

CPU 0 Bimodal branch predictor
Basic BTB sets: 1024 ways: 8 indirect buffer size: 4096 RAS size: 64
Instruction page size distrubution: 0
Loading instruction page size distribution from /home/bsc/bsc018186/scratch/itp_asplos25_AE/dump/srv566_ap.pdst
Data page size distrubution: 0
Loading data page size distribution from /home/bsc/bsc018186/scratch/itp_asplos25_AE/dump/srv566_ap.pdst
cpu0_L2C IP-based stride prefetcher
cpu0_L2C is using PTP replacement policy:
	TLB_STRESS_THRESHOLD:0
	PTE_EVICTION_RATIO:0
cpu0_L1D next line prefetcher
CHiRPing...
cpu0_L1I next line prefetcher
Off-chip DRAM Size: 4 GiB Channels: 1 Width: 64-bit Data Rate: 3200 MT/s
Heartbeat CPU 0 instructions: 10000000 cycles: 2500221 heartbeat IPC: 3.99965 cumulative IPC: 3.99965 (Simulation time: 0 hr 0 min 37 sec) 
Heartbeat CPU 0 instructions: 20000001 cycles: 5000225 heartbeat IPC: 4 cumulative IPC: 3.99983 (Simulation time: 0 hr 1 min 18 sec) 
Heartbeat CPU 0 instructions: 30000002 cycles: 7500226 heartbeat IPC: 4 cumulative IPC: 3.99988 (Simulation time: 0 hr 1 min 58 sec) 
Heartbeat CPU 0 instructions: 40000000 cycles: 10000236 heartbeat IPC: 3.99999 cumulative IPC: 3.99991 (Simulation time: 0 hr 2 min 40 sec) 
Heartbeat CPU 0 instructions: 50000003 cycles: 12500250 heartbeat IPC: 3.99998 cumulative IPC: 3.99993 (Simulation time: 0 hr 3 min 21 sec) 
Warmup finished CPU 0 instructions: 50000003 cycles: 12500251 cumulative IPC: 3.99992 (Simulation time: 0 hr 3 min 21 sec) 

Warmup complete CPU 0 instructions: 50000003 cycles: 12500251 (Simulation time: 0 hr 3 min 21 sec) 

Heartbeat CPU 0 instructions: 60000000 cycles: 27233403 heartbeat IPC: 0.678742 cumulative IPC: 0.678742 (Simulation time: 0 hr 4 min 27 sec) 
Heartbeat CPU 0 instructions: 70000002 cycles: 41718294 heartbeat IPC: 0.690375 cumulative IPC: 0.684509 (Simulation time: 0 hr 5 min 32 sec) 
Heartbeat CPU 0 instructions: 80000001 cycles: 55268467 heartbeat IPC: 0.737998 cumulative IPC: 0.701456 (Simulation time: 0 hr 6 min 36 sec) 
Heartbeat CPU 0 instructions: 90000003 cycles: 69317661 heartbeat IPC: 0.711785 cumulative IPC: 0.70401 (Simulation time: 0 hr 7 min 41 sec) 
Heartbeat CPU 0 instructions: 100000001 cycles: 83416802 heartbeat IPC: 0.709263 cumulative IPC: 0.705055 (Simulation time: 0 hr 8 min 45 sec) 
*** Reached end of trace: /gpfs/projects/bsc18/MN4/bsc18/romol/ChampSim/traces/qualcomm_srv/srv566_ap.champsimtrace.xz
Heartbeat CPU 0 instructions: 110000000 cycles: 97332779 heartbeat IPC: 0.718599 cumulative IPC: 0.707276 (Simulation time: 0 hr 9 min 48 sec) 
Heartbeat CPU 0 instructions: 120000001 cycles: 110844427 heartbeat IPC: 0.740103 cumulative IPC: 0.711786 (Simulation time: 0 hr 10 min 53 sec) 
Heartbeat CPU 0 instructions: 130000000 cycles: 124976087 heartbeat IPC: 0.707631 cumulative IPC: 0.711264 (Simulation time: 0 hr 11 min 58 sec) 
Heartbeat CPU 0 instructions: 140000001 cycles: 139071178 heartbeat IPC: 0.709467 cumulative IPC: 0.711064 (Simulation time: 0 hr 13 min 3 sec) 
Heartbeat CPU 0 instructions: 150000003 cycles: 152957227 heartbeat IPC: 0.720148 cumulative IPC: 0.711962 (Simulation time: 0 hr 14 min 8 sec) 
Simulation finished CPU 0 instructions: 100000000 cycles: 140456977 cumulative IPC: 0.711962 (Simulation time: 0 hr 14 min 8 sec) 

Simulation complete CPU 0 instructions: 100000000 cycles: 140456977 (Simulation time: 0 hr 14 min 8 sec) 


ChampSim completed all CPUs

Saving instructions large page distribution to /home/bsc/bsc018186/scratch/itp_asplos25_AE/dump/srv566_ap.pdst...
Saving data large page distribution to /home/bsc/bsc018186/scratch/itp_asplos25_AE/dump/srv566_ap.pdst...
=== Simulation ===
CPU 0 runs /gpfs/projects/bsc18/MN4/bsc18/romol/ChampSim/traces/qualcomm_srv/srv566_ap.champsimtrace.xz

Region of Interest Statistics

CPU 0 cumulative IPC: 0.711962 instructions: 100000000 cycles: 140456977
CPU 0 Branch Prediction Accuracy: 83.449% MPKI: 29.7364 Average ROB Occupancy at Mispredict: 12.1608
Branch type MPKI
BRANCH_DIRECT_JUMP: 0.948671
BRANCH_INDIRECT: 15.4368
BRANCH_CONDITIONAL: 9.7205
BRANCH_DIRECT_CALL: 1.81322
BRANCH_INDIRECT_CALL: 0.497481
BRANCH_RETURN: 1.31977

Instructions large pages: 0
Instructions small pages: 9767
Large page distribution for instructions: 0%

Data large pages: 0
Data small pages: 8906
Large page distribution for data: 0%

cpu0_L1I TOTAL       ACCESS:   35167213  HIT:   26578901  MISS:    8588312  iACCESS:   35167213  iHIT:   26578901  iMISS:    8588312  dACCESS:          0  dHIT:          0  dMISS:          0  itACCESS:          0  itHIT:          0  itMISS:          0  dtACCESS:          0  dtHIT:          0  dtMISS:          0
cpu0_L1I LOAD         ACCESS:   10241160  HIT:    7842203  MISS:    2398957  iACCESS:   10241160  iHIT:    7842203  iMISS:    2398957  dACCESS:          0  dHIT:          0  dMISS:          0  itACCESS:          0  itHIT:          0  itMISS:          0  dtACCESS:          0  dtHIT:          0  dtMISS:          0
cpu0_L1I RFO          ACCESS:          0  HIT:          0  MISS:          0  iACCESS:          0  iHIT:          0  iMISS:          0  dACCESS:          0  dHIT:          0  dMISS:          0  itACCESS:          0  itHIT:          0  itMISS:          0  dtACCESS:          0  dtHIT:          0  dtMISS:          0
cpu0_L1I PREFETCH     ACCESS:   24926053  HIT:   18736698  MISS:    6189355  iACCESS:   24926053  iHIT:   18736698  iMISS:    6189355  dACCESS:          0  dHIT:          0  dMISS:          0  itACCESS:          0  itHIT:          0  itMISS:          0  dtACCESS:          0  dtHIT:          0  dtMISS:          0
cpu0_L1I WRITE        ACCESS:          0  HIT:          0  MISS:          0  iACCESS:          0  iHIT:          0  iMISS:          0  dACCESS:          0  dHIT:          0  dMISS:          0  itACCESS:          0  itHIT:          0  itMISS:          0  dtACCESS:          0  dtHIT:          0  dtMISS:          0
cpu0_L1I TRANSLATION  ACCESS:          0  HIT:          0  MISS:          0  iACCESS:          0  iHIT:          0  iMISS:          0  dACCESS:          0  dHIT:          0  dMISS:          0  itACCESS:          0  itHIT:          0  itMISS:          0  dtACCESS:          0  dtHIT:          0  dtMISS:          0
cpu0_L1I PREFETCH  REQUESTED:   27139331  ISSUED:   27135609  CROSSED:          0  USEFUL:    1933932  USELESS:     637522
cpu0_L1I AVERAGE iMISS LATENCY: 13.7892 cycles
cpu0_L1I AVERAGE dMISS LATENCY: 0 cycles
cpu0_L1I AVERAGE itMISS LATENCY: 0 cycles
cpu0_L1I AVERAGE dtMISS LATENCY: 0 cycles
cpu0_L1I PAGE CROSSINGS (TLB HIT):         0 
cpu0_L1I PAGE CROSSINGS (TLB MISS):         0 
cpu0_L1I AVERAGE MISS LATENCY: 13.7892 cycles
cpu0_ITLB TOTAL       ACCESS:   29052729  HIT:   27064762  MISS:    1987967  iACCESS:   29052729  iHIT:   27064762  iMISS:    1987967  dACCESS:          0  dHIT:          0  dMISS:          0  itACCESS:          0  itHIT:          0  itMISS:          0  dtACCESS:          0  dtHIT:          0  dtMISS:          0
cpu0_ITLB LOAD         ACCESS:   29052729  HIT:   27064762  MISS:    1987967  iACCESS:   29052729  iHIT:   27064762  iMISS:    1987967  dACCESS:          0  dHIT:          0  dMISS:          0  itACCESS:          0  itHIT:          0  itMISS:          0  dtACCESS:          0  dtHIT:          0  dtMISS:          0
cpu0_ITLB RFO          ACCESS:          0  HIT:          0  MISS:          0  iACCESS:          0  iHIT:          0  iMISS:          0  dACCESS:          0  dHIT:          0  dMISS:          0  itACCESS:          0  itHIT:          0  itMISS:          0  dtACCESS:          0  dtHIT:          0  dtMISS:          0
cpu0_ITLB PREFETCH     ACCESS:          0  HIT:          0  MISS:          0  iACCESS:          0  iHIT:          0  iMISS:          0  dACCESS:          0  dHIT:          0  dMISS:          0  itACCESS:          0  itHIT:          0  itMISS:          0  dtACCESS:          0  dtHIT:          0  dtMISS:          0
cpu0_ITLB WRITE        ACCESS:          0  HIT:          0  MISS:          0  iACCESS:          0  iHIT:          0  iMISS:          0  dACCESS:          0  dHIT:          0  dMISS:          0  itACCESS:          0  itHIT:          0  itMISS:          0  dtACCESS:          0  dtHIT:          0  dtMISS:          0
cpu0_ITLB TRANSLATION  ACCESS:          0  HIT:          0  MISS:          0  iACCESS:          0  iHIT:          0  iMISS:          0  dACCESS:          0  dHIT:          0  dMISS:          0  itACCESS:          0  itHIT:          0  itMISS:          0  dtACCESS:          0  dtHIT:          0  dtMISS:          0
cpu0_ITLB PREFETCH  REQUESTED:          0  ISSUED:          0  CROSSED:          0  USEFUL:     326212  USELESS:      62089
cpu0_ITLB AVERAGE iMISS LATENCY: 2.63772 cycles
cpu0_ITLB AVERAGE dMISS LATENCY: 0 cycles
cpu0_ITLB AVERAGE itMISS LATENCY: 0 cycles
cpu0_ITLB AVERAGE dtMISS LATENCY: 0 cycles
cpu0_ITLB PAGE CROSSINGS (TLB HIT):         0 
cpu0_ITLB PAGE CROSSINGS (TLB MISS):         0 
cpu0_ITLB AVERAGE MISS LATENCY: 2.63772 cycles
cpu0_DTLB TOTAL       ACCESS:   27699255  HIT:   25875631  MISS:    1823624  iACCESS:          0  iHIT:          0  iMISS:          0  dACCESS:   27699255  dHIT:   25875631  dMISS:    1823624  itACCESS:          0  itHIT:          0  itMISS:          0  dtACCESS:          0  dtHIT:          0  dtMISS:          0
cpu0_DTLB LOAD         ACCESS:   27699255  HIT:   25875631  MISS:    1823624  iACCESS:          0  iHIT:          0  iMISS:          0  dACCESS:   27699255  dHIT:   25875631  dMISS:    1823624  itACCESS:          0  itHIT:          0  itMISS:          0  dtACCESS:          0  dtHIT:          0  dtMISS:          0
cpu0_DTLB RFO          ACCESS:          0  HIT:          0  MISS:          0  iACCESS:          0  iHIT:          0  iMISS:          0  dACCESS:          0  dHIT:          0  dMISS:          0  itACCESS:          0  itHIT:          0  itMISS:          0  dtACCESS:          0  dtHIT:          0  dtMISS:          0
cpu0_DTLB PREFETCH     ACCESS:          0  HIT:          0  MISS:          0  iACCESS:          0  iHIT:          0  iMISS:          0  dACCESS:          0  dHIT:          0  dMISS:          0  itACCESS:          0  itHIT:          0  itMISS:          0  dtACCESS:          0  dtHIT:          0  dtMISS:          0
cpu0_DTLB WRITE        ACCESS:          0  HIT:          0  MISS:          0  iACCESS:          0  iHIT:          0  iMISS:          0  dACCESS:          0  dHIT:          0  dMISS:          0  itACCESS:          0  itHIT:          0  itMISS:          0  dtACCESS:          0  dtHIT:          0  dtMISS:          0
cpu0_DTLB TRANSLATION  ACCESS:          0  HIT:          0  MISS:          0  iACCESS:          0  iHIT:          0  iMISS:          0  dACCESS:          0  dHIT:          0  dMISS:          0  itACCESS:          0  itHIT:          0  itMISS:          0  dtACCESS:          0  dtHIT:          0  dtMISS:          0
cpu0_DTLB PREFETCH  REQUESTED:          0  ISSUED:          0  CROSSED:          0  USEFUL:          0  USELESS:          0
cpu0_DTLB AVERAGE iMISS LATENCY: 0 cycles
cpu0_DTLB AVERAGE dMISS LATENCY: 9.02769 cycles
cpu0_DTLB AVERAGE itMISS LATENCY: 0 cycles
cpu0_DTLB AVERAGE dtMISS LATENCY: 0 cycles
cpu0_DTLB PAGE CROSSINGS (TLB HIT):         0 
cpu0_DTLB PAGE CROSSINGS (TLB MISS):         0 
cpu0_DTLB AVERAGE MISS LATENCY: 9.02769 cycles
cpu0_STLB TOTAL       ACCESS:    1511823  HIT:    1349869  MISS:     161954  iACCESS:     388372  iHIT:     331470  iMISS:      56902  dACCESS:    1123451  dHIT:    1018399  dMISS:     105052  itACCESS:          0  itHIT:          0  itMISS:          0  dtACCESS:          0  dtHIT:          0  dtMISS:          0
cpu0_STLB LOAD         ACCESS:    1511823  HIT:    1349869  MISS:     161954  iACCESS:     388372  iHIT:     331470  iMISS:      56902  dACCESS:    1123451  dHIT:    1018399  dMISS:     105052  itACCESS:          0  itHIT:          0  itMISS:          0  dtACCESS:          0  dtHIT:          0  dtMISS:          0
cpu0_STLB RFO          ACCESS:          0  HIT:          0  MISS:          0  iACCESS:          0  iHIT:          0  iMISS:          0  dACCESS:          0  dHIT:          0  dMISS:          0  itACCESS:          0  itHIT:          0  itMISS:          0  dtACCESS:          0  dtHIT:          0  dtMISS:          0
cpu0_STLB PREFETCH     ACCESS:          0  HIT:          0  MISS:          0  iACCESS:          0  iHIT:          0  iMISS:          0  dACCESS:          0  dHIT:          0  dMISS:          0  itACCESS:          0  itHIT:          0  itMISS:          0  dtACCESS:          0  dtHIT:          0  dtMISS:          0
cpu0_STLB WRITE        ACCESS:          0  HIT:          0  MISS:          0  iACCESS:          0  iHIT:          0  iMISS:          0  dACCESS:          0  dHIT:          0  dMISS:          0  itACCESS:          0  itHIT:          0  itMISS:          0  dtACCESS:          0  dtHIT:          0  dtMISS:          0
cpu0_STLB TRANSLATION  ACCESS:          0  HIT:          0  MISS:          0  iACCESS:          0  iHIT:          0  iMISS:          0  dACCESS:          0  dHIT:          0  dMISS:          0  itACCESS:          0  itHIT:          0  itMISS:          0  dtACCESS:          0  dtHIT:          0  dtMISS:          0
cpu0_STLB PREFETCH  REQUESTED:          0  ISSUED:          0  CROSSED:          0  USEFUL:          0  USELESS:          0
cpu0_STLB AVERAGE iMISS LATENCY: 13.4585 cycles
cpu0_STLB AVERAGE dMISS LATENCY: 46.3469 cycles
cpu0_STLB AVERAGE itMISS LATENCY: 0 cycles
cpu0_STLB AVERAGE dtMISS LATENCY: 0 cycles
cpu0_STLB PAGE CROSSINGS (TLB HIT):         0 
cpu0_STLB PAGE CROSSINGS (TLB MISS):         0 
cpu0_STLB AVERAGE MISS LATENCY: 59.8054 cycles
cpu0_L1D TOTAL       ACCESS:   41465424  HIT:   37916367  MISS:    3549057  iACCESS:          0  iHIT:          0  iMISS:          0  dACCESS:   41244068  dHIT:   37896872  dMISS:    3347196  itACCESS:      61690  itHIT:       9036  itMISS:      52654  dtACCESS:     159666  dtHIT:      10459  dtMISS:     149207
cpu0_L1D LOAD         ACCESS:   18955980  HIT:   17433262  MISS:    1522718  iACCESS:          0  iHIT:          0  iMISS:          0  dACCESS:   18955980  dHIT:   17433262  dMISS:    1522718  itACCESS:          0  itHIT:          0  itMISS:          0  dtACCESS:          0  dtHIT:          0  dtMISS:          0
cpu0_L1D RFO          ACCESS:          0  HIT:          0  MISS:          0  iACCESS:          0  iHIT:          0  iMISS:          0  dACCESS:          0  dHIT:          0  dMISS:          0  itACCESS:          0  itHIT:          0  itMISS:          0  dtACCESS:          0  dtHIT:          0  dtMISS:          0
cpu0_L1D PREFETCH     ACCESS:   12140777  HIT:   10759591  MISS:    1381186  iACCESS:          0  iHIT:          0  iMISS:          0  dACCESS:   12140777  dHIT:   10759591  dMISS:    1381186  itACCESS:          0  itHIT:          0  itMISS:          0  dtACCESS:          0  dtHIT:          0  dtMISS:          0
cpu0_L1D WRITE        ACCESS:   10147311  HIT:    9704019  MISS:     443292  iACCESS:          0  iHIT:          0  iMISS:          0  dACCESS:   10147311  dHIT:    9704019  dMISS:     443292  itACCESS:          0  itHIT:          0  itMISS:          0  dtACCESS:          0  dtHIT:          0  dtMISS:          0
cpu0_L1D TRANSLATION  ACCESS:     221356  HIT:      19495  MISS:     201861  iACCESS:          0  iHIT:          0  iMISS:          0  dACCESS:          0  dHIT:          0  dMISS:          0  itACCESS:      61690  itHIT:       9036  itMISS:      52654  dtACCESS:     159666  dtHIT:      10459  dtMISS:     149207
cpu0_L1D PREFETCH  REQUESTED:   18955980  ISSUED:   16915646  CROSSED:          0  USEFUL:     309611  USELESS:     702383
cpu0_L1D AVERAGE iMISS LATENCY: 0 cycles
cpu0_L1D AVERAGE dMISS LATENCY: 34.8031 cycles
cpu0_L1D AVERAGE itMISS LATENCY: 0.474042 cycles
cpu0_L1D AVERAGE dtMISS LATENCY: 1.49857 cycles
cpu0_L1D PAGE CROSSINGS (TLB HIT):         0 
cpu0_L1D PAGE CROSSINGS (TLB MISS):         0 
cpu0_L1D AVERAGE MISS LATENCY: 36.7757 cycles
cpu0_L2C TOTAL       ACCESS:    7005156  HIT:    1242802  MISS:    5762354  iACCESS:    3325981  iHIT:     706829  iMISS:    2619152  dACCESS:    3487968  dHIT:     381654  dMISS:    3106314  itACCESS:      52654  itHIT:      43060  itMISS:       9594  dtACCESS:     138553  dtHIT:     111259  dtMISS:      27294
cpu0_L2C LOAD         ACCESS:    1727309  HIT:     140960  MISS:    1586349  iACCESS:     793371  iHIT:     102882  iMISS:     690489  dACCESS:     933938  dHIT:      38078  dMISS:     895860  itACCESS:          0  itHIT:          0  itMISS:          0  dtACCESS:          0  dtHIT:          0  dtMISS:          0
cpu0_L2C RFO          ACCESS:     155954  HIT:       8247  MISS:     147707  iACCESS:          0  iHIT:          0  iMISS:          0  dACCESS:     155954  dHIT:       8247  dMISS:     147707  itACCESS:          0  itHIT:          0  itMISS:          0  dtACCESS:          0  dtHIT:          0  dtMISS:          0
cpu0_L2C PREFETCH     ACCESS:    4646207  HIT:     878553  MISS:    3767654  iACCESS:    2532610  iHIT:     603947  iMISS:    1928663  dACCESS:    2113597  dHIT:     274606  dMISS:    1838991  itACCESS:          0  itHIT:          0  itMISS:          0  dtACCESS:          0  dtHIT:          0  dtMISS:          0
cpu0_L2C WRITE        ACCESS:     284479  HIT:      60723  MISS:     223756  iACCESS:          0  iHIT:          0  iMISS:          0  dACCESS:     284479  dHIT:      60723  dMISS:     223756  itACCESS:          0  itHIT:          0  itMISS:          0  dtACCESS:          0  dtHIT:          0  dtMISS:          0
cpu0_L2C TRANSLATION  ACCESS:     191207  HIT:     154319  MISS:      36888  iACCESS:          0  iHIT:          0  iMISS:          0  dACCESS:          0  dHIT:          0  dMISS:          0  itACCESS:      52654  itHIT:      43060  itMISS:       9594  dtACCESS:     138553  dtHIT:     111259  dtMISS:      27294
cpu0_L2C PREFETCH  REQUESTED:    1387525  ISSUED:    1387525  CROSSED:          0  USEFUL:     418413  USELESS:     391730
cpu0_L2C AVERAGE iMISS LATENCY: 15.1805 cycles
cpu0_L2C AVERAGE dMISS LATENCY: 24.8072 cycles
cpu0_L2C AVERAGE itMISS LATENCY: 0.207881 cycles
cpu0_L2C AVERAGE dtMISS LATENCY: 0.700668 cycles
cpu0_L2C PAGE CROSSINGS (TLB HIT):         0 
cpu0_L2C PAGE CROSSINGS (TLB MISS):         0 
cpu0_L2C AVERAGE MISS LATENCY: 40.8962 cycles
LLC TOTAL       ACCESS:    5687304  HIT:    4857825  MISS:     829479  iACCESS:    2561232  iHIT:    2301574  iMISS:     259658  dACCESS:    3089184  dHIT:    2545017  dMISS:     544167  itACCESS:       9594  itHIT:       3746  itMISS:       5848  dtACCESS:      27294  dtHIT:       7488  dtMISS:      19806
LLC LOAD         ACCESS:    1584262  HIT:    1391376  MISS:     192886  iACCESS:     688788  iHIT:     632928  iMISS:      55860  dACCESS:     895474  dHIT:     758448  dMISS:     137026  itACCESS:          0  itHIT:          0  itMISS:          0  dtACCESS:          0  dtHIT:          0  dtMISS:          0
LLC RFO          ACCESS:     147707  HIT:     109039  MISS:      38668  iACCESS:          0  iHIT:          0  iMISS:          0  dACCESS:     147707  dHIT:     109039  dMISS:      38668  itACCESS:          0  itHIT:          0  itMISS:          0  dtACCESS:          0  dtHIT:          0  dtMISS:          0
LLC PREFETCH     ACCESS:    3659796  HIT:    3087527  MISS:     572269  iACCESS:    1872444  iHIT:    1668646  iMISS:     203798  dACCESS:    1787352  dHIT:    1418881  dMISS:     368471  itACCESS:          0  itHIT:          0  itMISS:          0  dtACCESS:          0  dtHIT:          0  dtMISS:          0
LLC WRITE        ACCESS:     258651  HIT:     258649  MISS:          2  iACCESS:          0  iHIT:          0  iMISS:          0  dACCESS:     258651  dHIT:     258649  dMISS:          2  itACCESS:          0  itHIT:          0  itMISS:          0  dtACCESS:          0  dtHIT:          0  dtMISS:          0
LLC TRANSLATION  ACCESS:      36888  HIT:      11234  MISS:      25654  iACCESS:          0  iHIT:          0  iMISS:          0  dACCESS:          0  dHIT:          0  dMISS:          0  itACCESS:       9594  itHIT:       3746  itMISS:       5848  dtACCESS:      27294  dtHIT:       7488  dtMISS:      19806
LLC PREFETCH  REQUESTED:          0  ISSUED:          0  CROSSED:          0  USEFUL:          0  USELESS:          0
LLC AVERAGE iMISS LATENCY: 45.8575 cycles
LLC AVERAGE dMISS LATENCY: 106.36 cycles
LLC AVERAGE itMISS LATENCY: 1.21776 cycles
LLC AVERAGE dtMISS LATENCY: 4.22096 cycles
LLC PAGE CROSSINGS (TLB HIT):         0 
LLC PAGE CROSSINGS (TLB MISS):         0 
LLC AVERAGE MISS LATENCY: 157.657 cycles

PageTableWalker TOTAL       ACCESS:      82593  
PageTableWalker AVERAGE LATENCY: 4.09804 cycles
PageTableWalker TOTAL LATENCY: 338469 cycles

DRAM Statistics
Channel 0
 RQ ROW_BUFFER_HIT:     235793
  ROW_BUFFER_MISS:     593592
 AVG DBUS CONGESTED CYCLE:     3.6204
 WQ ROW_BUFFER_HIT:      20950
  ROW_BUFFER_MISS:      30126  FULL:          0

