last_page:0x200000000000000
VMEM_RES_CAP:0x100000
PAGE_SIZE:4096
LOG2_PAGE_SIZE:12
LOG2_PAGE_TABLE_SIZE:9
page_table_levels:5
WARNING: physical memory size is smaller than virtual memory size
FDiP enabled with aggresivity 16

*** ChampSim Multicore Out-of-Order Simulator ***

Warmup Instructions: 50000000
Simulation Instructions: 100000000
Number of CPUs: 1
Small page size: 4096
Large page size: 2097152

CPU 0 Bimodal branch predictor
Basic BTB sets: 1024 ways: 8 indirect buffer size: 4096 RAS size: 64
Instruction page size distrubution: 0
Loading instruction page size distribution from /home/bsc/bsc018186/scratch/itp_asplos25_AE/dump/srv598_ap.pdst
Data page size distrubution: 0
Loading data page size distribution from /home/bsc/bsc018186/scratch/itp_asplos25_AE/dump/srv598_ap.pdst
cpu0_L2C IP-based stride prefetcher
cpu0_L1D next line prefetcher
cpu0_L1I next line prefetcher
Off-chip DRAM Size: 4 GiB Channels: 1 Width: 64-bit Data Rate: 3200 MT/s
Heartbeat CPU 0 instructions: 10000001 cycles: 2500205 heartbeat IPC: 3.99968 cumulative IPC: 3.99968 (Simulation time: 0 hr 0 min 35 sec) 
Heartbeat CPU 0 instructions: 20000001 cycles: 5000205 heartbeat IPC: 4 cumulative IPC: 3.99984 (Simulation time: 0 hr 1 min 12 sec) 
Heartbeat CPU 0 instructions: 30000001 cycles: 7500205 heartbeat IPC: 4 cumulative IPC: 3.9999 (Simulation time: 0 hr 1 min 49 sec) 
Heartbeat CPU 0 instructions: 40000001 cycles: 10000247 heartbeat IPC: 3.99994 cumulative IPC: 3.99991 (Simulation time: 0 hr 2 min 31 sec) 
Heartbeat CPU 0 instructions: 50000002 cycles: 12500279 heartbeat IPC: 3.99995 cumulative IPC: 3.99992 (Simulation time: 0 hr 3 min 15 sec) 
Warmup finished CPU 0 instructions: 50000002 cycles: 12500280 cumulative IPC: 3.99992 (Simulation time: 0 hr 3 min 15 sec) 

Warmup complete CPU 0 instructions: 50000002 cycles: 12500280 (Simulation time: 0 hr 3 min 15 sec) 

Heartbeat CPU 0 instructions: 60000003 cycles: 27039459 heartbeat IPC: 0.687797 cumulative IPC: 0.687797 (Simulation time: 0 hr 4 min 15 sec) 
Heartbeat CPU 0 instructions: 70000002 cycles: 41194875 heartbeat IPC: 0.706444 cumulative IPC: 0.696996 (Simulation time: 0 hr 5 min 15 sec) 
Heartbeat CPU 0 instructions: 80000004 cycles: 56406993 heartbeat IPC: 0.657371 cumulative IPC: 0.683267 (Simulation time: 0 hr 6 min 16 sec) 
Heartbeat CPU 0 instructions: 90000000 cycles: 69885675 heartbeat IPC: 0.741913 cumulative IPC: 0.697042 (Simulation time: 0 hr 7 min 15 sec) 
Heartbeat CPU 0 instructions: 100000002 cycles: 84661560 heartbeat IPC: 0.676779 cumulative IPC: 0.692893 (Simulation time: 0 hr 8 min 16 sec) 
*** Reached end of trace: /gpfs/projects/bsc18/MN4/bsc18/romol/ChampSim/traces/qualcomm_srv/srv598_ap.champsimtrace.xz
Heartbeat CPU 0 instructions: 110000002 cycles: 99123933 heartbeat IPC: 0.69145 cumulative IPC: 0.692652 (Simulation time: 0 hr 9 min 17 sec) 
Heartbeat CPU 0 instructions: 120000000 cycles: 113822134 heartbeat IPC: 0.680356 cumulative IPC: 0.690868 (Simulation time: 0 hr 10 min 18 sec) 
Heartbeat CPU 0 instructions: 130000002 cycles: 128126258 heartbeat IPC: 0.6991 cumulative IPC: 0.691887 (Simulation time: 0 hr 11 min 18 sec) 
Heartbeat CPU 0 instructions: 140000000 cycles: 142296160 heartbeat IPC: 0.705722 cumulative IPC: 0.693397 (Simulation time: 0 hr 12 min 18 sec) 
Heartbeat CPU 0 instructions: 150000003 cycles: 156164674 heartbeat IPC: 0.721059 cumulative IPC: 0.696067 (Simulation time: 0 hr 13 min 18 sec) 
Simulation finished CPU 0 instructions: 100000001 cycles: 143664395 cumulative IPC: 0.696067 (Simulation time: 0 hr 13 min 18 sec) 

Simulation complete CPU 0 instructions: 100000001 cycles: 143664395 (Simulation time: 0 hr 13 min 18 sec) 


ChampSim completed all CPUs

Saving instructions large page distribution to /home/bsc/bsc018186/scratch/itp_asplos25_AE/dump/srv598_ap.pdst...
Saving data large page distribution to /home/bsc/bsc018186/scratch/itp_asplos25_AE/dump/srv598_ap.pdst...
=== Simulation ===
CPU 0 runs /gpfs/projects/bsc18/MN4/bsc18/romol/ChampSim/traces/qualcomm_srv/srv598_ap.champsimtrace.xz

Region of Interest Statistics

CPU 0 cumulative IPC: 0.696067 instructions: 100000001 cycles: 143664395
CPU 0 Branch Prediction Accuracy: 82.4702% MPKI: 31.394 Average ROB Occupancy at Mispredict: 12.8151
Branch type MPKI
BRANCH_DIRECT_JUMP: 1.06633
BRANCH_INDIRECT: 16.1839
BRANCH_CONDITIONAL: 10.3233
BRANCH_DIRECT_CALL: 1.92844
BRANCH_INDIRECT_CALL: 0.51491
BRANCH_RETURN: 1.37719

Instructions large pages: 0
Instructions small pages: 1014
Large page distribution for instructions: 0%

Data large pages: 0
Data small pages: 9552
Large page distribution for data: 0%

cpu0_L1I TOTAL       ACCESS:   35687757  HIT:   27259711  MISS:    8428046  iACCESS:   35687757  iHIT:   27259711  iMISS:    8428046  dACCESS:          0  dHIT:          0  dMISS:          0  itACCESS:          0  itHIT:          0  itMISS:          0  dtACCESS:          0  dtHIT:          0  dtMISS:          0
cpu0_L1I LOAD         ACCESS:   10461785  HIT:    8108709  MISS:    2353076  iACCESS:   10461785  iHIT:    8108709  iMISS:    2353076  dACCESS:          0  dHIT:          0  dMISS:          0  itACCESS:          0  itHIT:          0  itMISS:          0  dtACCESS:          0  dtHIT:          0  dtMISS:          0
cpu0_L1I RFO          ACCESS:          0  HIT:          0  MISS:          0  iACCESS:          0  iHIT:          0  iMISS:          0  dACCESS:          0  dHIT:          0  dMISS:          0  itACCESS:          0  itHIT:          0  itMISS:          0  dtACCESS:          0  dtHIT:          0  dtMISS:          0
cpu0_L1I PREFETCH     ACCESS:   25225972  HIT:   19151002  MISS:    6074970  iACCESS:   25225972  iHIT:   19151002  iMISS:    6074970  dACCESS:          0  dHIT:          0  dMISS:          0  itACCESS:          0  itHIT:          0  itMISS:          0  dtACCESS:          0  dtHIT:          0  dtMISS:          0
cpu0_L1I WRITE        ACCESS:          0  HIT:          0  MISS:          0  iACCESS:          0  iHIT:          0  iMISS:          0  dACCESS:          0  dHIT:          0  dMISS:          0  itACCESS:          0  itHIT:          0  itMISS:          0  dtACCESS:          0  dtHIT:          0  dtMISS:          0
cpu0_L1I TRANSLATION  ACCESS:          0  HIT:          0  MISS:          0  iACCESS:          0  iHIT:          0  iMISS:          0  dACCESS:          0  dHIT:          0  dMISS:          0  itACCESS:          0  itHIT:          0  itMISS:          0  dtACCESS:          0  dtHIT:          0  dtMISS:          0
cpu0_L1I PREFETCH  REQUESTED:   27533548  ISSUED:   27533004  CROSSED:          0  USEFUL:    1951993  USELESS:     627406
cpu0_L1I AVERAGE iMISS LATENCY: 13.178 cycles
cpu0_L1I AVERAGE dMISS LATENCY: 0 cycles
cpu0_L1I AVERAGE itMISS LATENCY: 0 cycles
cpu0_L1I AVERAGE dtMISS LATENCY: 0 cycles
cpu0_L1I PAGE CROSSINGS (TLB HIT):         0 
cpu0_L1I PAGE CROSSINGS (TLB MISS):         0 
cpu0_L1I AVERAGE MISS LATENCY: 13.178 cycles
cpu0_ITLB TOTAL       ACCESS:   29532195  HIT:   27603179  MISS:    1929016  iACCESS:   29532195  iHIT:   27603179  iMISS:    1929016  dACCESS:          0  dHIT:          0  dMISS:          0  itACCESS:          0  itHIT:          0  itMISS:          0  dtACCESS:          0  dtHIT:          0  dtMISS:          0
cpu0_ITLB LOAD         ACCESS:   29532195  HIT:   27603179  MISS:    1929016  iACCESS:   29532195  iHIT:   27603179  iMISS:    1929016  dACCESS:          0  dHIT:          0  dMISS:          0  itACCESS:          0  itHIT:          0  itMISS:          0  dtACCESS:          0  dtHIT:          0  dtMISS:          0
cpu0_ITLB RFO          ACCESS:          0  HIT:          0  MISS:          0  iACCESS:          0  iHIT:          0  iMISS:          0  dACCESS:          0  dHIT:          0  dMISS:          0  itACCESS:          0  itHIT:          0  itMISS:          0  dtACCESS:          0  dtHIT:          0  dtMISS:          0
cpu0_ITLB PREFETCH     ACCESS:          0  HIT:          0  MISS:          0  iACCESS:          0  iHIT:          0  iMISS:          0  dACCESS:          0  dHIT:          0  dMISS:          0  itACCESS:          0  itHIT:          0  itMISS:          0  dtACCESS:          0  dtHIT:          0  dtMISS:          0
cpu0_ITLB WRITE        ACCESS:          0  HIT:          0  MISS:          0  iACCESS:          0  iHIT:          0  iMISS:          0  dACCESS:          0  dHIT:          0  dMISS:          0  itACCESS:          0  itHIT:          0  itMISS:          0  dtACCESS:          0  dtHIT:          0  dtMISS:          0
cpu0_ITLB TRANSLATION  ACCESS:          0  HIT:          0  MISS:          0  iACCESS:          0  iHIT:          0  iMISS:          0  dACCESS:          0  dHIT:          0  dMISS:          0  itACCESS:          0  itHIT:          0  itMISS:          0  dtACCESS:          0  dtHIT:          0  dtMISS:          0
cpu0_ITLB PREFETCH  REQUESTED:          0  ISSUED:          0  CROSSED:          0  USEFUL:     318215  USELESS:      63532
cpu0_ITLB AVERAGE iMISS LATENCY: 3.16993 cycles
cpu0_ITLB AVERAGE dMISS LATENCY: 0 cycles
cpu0_ITLB AVERAGE itMISS LATENCY: 0 cycles
cpu0_ITLB AVERAGE dtMISS LATENCY: 0 cycles
cpu0_ITLB PAGE CROSSINGS (TLB HIT):         0 
cpu0_ITLB PAGE CROSSINGS (TLB MISS):         0 
cpu0_ITLB AVERAGE MISS LATENCY: 3.16993 cycles
cpu0_DTLB TOTAL       ACCESS:   27911399  HIT:   25966938  MISS:    1944461  iACCESS:          0  iHIT:          0  iMISS:          0  dACCESS:   27911399  dHIT:   25966938  dMISS:    1944461  itACCESS:          0  itHIT:          0  itMISS:          0  dtACCESS:          0  dtHIT:          0  dtMISS:          0
cpu0_DTLB LOAD         ACCESS:   27911399  HIT:   25966938  MISS:    1944461  iACCESS:          0  iHIT:          0  iMISS:          0  dACCESS:   27911399  dHIT:   25966938  dMISS:    1944461  itACCESS:          0  itHIT:          0  itMISS:          0  dtACCESS:          0  dtHIT:          0  dtMISS:          0
cpu0_DTLB RFO          ACCESS:          0  HIT:          0  MISS:          0  iACCESS:          0  iHIT:          0  iMISS:          0  dACCESS:          0  dHIT:          0  dMISS:          0  itACCESS:          0  itHIT:          0  itMISS:          0  dtACCESS:          0  dtHIT:          0  dtMISS:          0
cpu0_DTLB PREFETCH     ACCESS:          0  HIT:          0  MISS:          0  iACCESS:          0  iHIT:          0  iMISS:          0  dACCESS:          0  dHIT:          0  dMISS:          0  itACCESS:          0  itHIT:          0  itMISS:          0  dtACCESS:          0  dtHIT:          0  dtMISS:          0
cpu0_DTLB WRITE        ACCESS:          0  HIT:          0  MISS:          0  iACCESS:          0  iHIT:          0  iMISS:          0  dACCESS:          0  dHIT:          0  dMISS:          0  itACCESS:          0  itHIT:          0  itMISS:          0  dtACCESS:          0  dtHIT:          0  dtMISS:          0
cpu0_DTLB TRANSLATION  ACCESS:          0  HIT:          0  MISS:          0  iACCESS:          0  iHIT:          0  iMISS:          0  dACCESS:          0  dHIT:          0  dMISS:          0  itACCESS:          0  itHIT:          0  itMISS:          0  dtACCESS:          0  dtHIT:          0  dtMISS:          0
cpu0_DTLB PREFETCH  REQUESTED:          0  ISSUED:          0  CROSSED:          0  USEFUL:          0  USELESS:          0
cpu0_DTLB AVERAGE iMISS LATENCY: 0 cycles
cpu0_DTLB AVERAGE dMISS LATENCY: 10.686 cycles
cpu0_DTLB AVERAGE itMISS LATENCY: 0 cycles
cpu0_DTLB AVERAGE dtMISS LATENCY: 0 cycles
cpu0_DTLB PAGE CROSSINGS (TLB HIT):         0 
cpu0_DTLB PAGE CROSSINGS (TLB MISS):         0 
cpu0_DTLB AVERAGE MISS LATENCY: 10.686 cycles
cpu0_STLB TOTAL       ACCESS:    1567206  HIT:    1395207  MISS:     171999  iACCESS:     381746  iHIT:     321544  iMISS:      60202  dACCESS:    1185460  dHIT:    1073663  dMISS:     111797  itACCESS:          0  itHIT:          0  itMISS:          0  dtACCESS:          0  dtHIT:          0  dtMISS:          0
cpu0_STLB LOAD         ACCESS:    1567206  HIT:    1395207  MISS:     171999  iACCESS:     381746  iHIT:     321544  iMISS:      60202  dACCESS:    1185460  dHIT:    1073663  dMISS:     111797  itACCESS:          0  itHIT:          0  itMISS:          0  dtACCESS:          0  dtHIT:          0  dtMISS:          0
cpu0_STLB RFO          ACCESS:          0  HIT:          0  MISS:          0  iACCESS:          0  iHIT:          0  iMISS:          0  dACCESS:          0  dHIT:          0  dMISS:          0  itACCESS:          0  itHIT:          0  itMISS:          0  dtACCESS:          0  dtHIT:          0  dtMISS:          0
cpu0_STLB PREFETCH     ACCESS:          0  HIT:          0  MISS:          0  iACCESS:          0  iHIT:          0  iMISS:          0  dACCESS:          0  dHIT:          0  dMISS:          0  itACCESS:          0  itHIT:          0  itMISS:          0  dtACCESS:          0  dtHIT:          0  dtMISS:          0
cpu0_STLB WRITE        ACCESS:          0  HIT:          0  MISS:          0  iACCESS:          0  iHIT:          0  iMISS:          0  dACCESS:          0  dHIT:          0  dMISS:          0  itACCESS:          0  itHIT:          0  itMISS:          0  dtACCESS:          0  dtHIT:          0  dtMISS:          0
cpu0_STLB TRANSLATION  ACCESS:          0  HIT:          0  MISS:          0  iACCESS:          0  iHIT:          0  iMISS:          0  dACCESS:          0  dHIT:          0  dMISS:          0  itACCESS:          0  itHIT:          0  itMISS:          0  dtACCESS:          0  dtHIT:          0  dtMISS:          0
cpu0_STLB PREFETCH  REQUESTED:          0  ISSUED:          0  CROSSED:          0  USEFUL:          0  USELESS:          0
cpu0_STLB AVERAGE iMISS LATENCY: 18.0266 cycles
cpu0_STLB AVERAGE dMISS LATENCY: 65.7435 cycles
cpu0_STLB AVERAGE itMISS LATENCY: 0 cycles
cpu0_STLB AVERAGE dtMISS LATENCY: 0 cycles
cpu0_STLB PAGE CROSSINGS (TLB HIT):         0 
cpu0_STLB PAGE CROSSINGS (TLB MISS):         0 
cpu0_STLB AVERAGE MISS LATENCY: 83.77 cycles
cpu0_L1D TOTAL       ACCESS:   41725771  HIT:   38232926  MISS:    3492845  iACCESS:          0  iHIT:          0  iMISS:          0  dACCESS:   41489199  dHIT:   38212691  dMISS:    3276508  itACCESS:      65308  itHIT:       9304  itMISS:      56004  dtACCESS:     171264  dtHIT:      10931  dtMISS:     160333
cpu0_L1D LOAD         ACCESS:   19109788  HIT:   17614320  MISS:    1495468  iACCESS:          0  iHIT:          0  iMISS:          0  dACCESS:   19109788  dHIT:   17614320  dMISS:    1495468  itACCESS:          0  itHIT:          0  itMISS:          0  dtACCESS:          0  dtHIT:          0  dtMISS:          0
cpu0_L1D RFO          ACCESS:          0  HIT:          0  MISS:          0  iACCESS:          0  iHIT:          0  iMISS:          0  dACCESS:          0  dHIT:          0  dMISS:          0  itACCESS:          0  itHIT:          0  itMISS:          0  dtACCESS:          0  dtHIT:          0  dtMISS:          0
cpu0_L1D PREFETCH     ACCESS:   12209150  HIT:   10847745  MISS:    1361405  iACCESS:          0  iHIT:          0  iMISS:          0  dACCESS:   12209150  dHIT:   10847745  dMISS:    1361405  itACCESS:          0  itHIT:          0  itMISS:          0  dtACCESS:          0  dtHIT:          0  dtMISS:          0
cpu0_L1D WRITE        ACCESS:   10170261  HIT:    9750626  MISS:     419635  iACCESS:          0  iHIT:          0  iMISS:          0  dACCESS:   10170261  dHIT:    9750626  dMISS:     419635  itACCESS:          0  itHIT:          0  itMISS:          0  dtACCESS:          0  dtHIT:          0  dtMISS:          0
cpu0_L1D TRANSLATION  ACCESS:     236572  HIT:      20235  MISS:     216337  iACCESS:          0  iHIT:          0  iMISS:          0  dACCESS:          0  dHIT:          0  dMISS:          0  itACCESS:      65308  itHIT:       9304  itMISS:      56004  dtACCESS:     171264  dtHIT:      10931  dtMISS:     160333
cpu0_L1D PREFETCH  REQUESTED:   19109788  ISSUED:   17047151  CROSSED:          0  USEFUL:     309018  USELESS:     709612
cpu0_L1D AVERAGE iMISS LATENCY: 0 cycles
cpu0_L1D AVERAGE dMISS LATENCY: 33.4224 cycles
cpu0_L1D AVERAGE itMISS LATENCY: 0.736921 cycles
cpu0_L1D AVERAGE dtMISS LATENCY: 2.53391 cycles
cpu0_L1D PAGE CROSSINGS (TLB HIT):         0 
cpu0_L1D PAGE CROSSINGS (TLB MISS):         0 
cpu0_L1D AVERAGE MISS LATENCY: 36.6933 cycles
cpu0_L2C TOTAL       ACCESS:    7058215  HIT:    1692786  MISS:    5365429  iACCESS:    3315912  iHIT:     859465  iMISS:    2456447  dACCESS:    3538364  dHIT:     714819  dMISS:    2823545  itACCESS:      56004  itHIT:      39771  itMISS:      16233  dtACCESS:     147935  dtHIT:      78731  dtMISS:      69204
cpu0_L2C LOAD         ACCESS:    1710021  HIT:     288298  MISS:    1421723  iACCESS:     775528  iHIT:     137404  iMISS:     638124  dACCESS:     934493  dHIT:     150894  dMISS:     783599  itACCESS:          0  itHIT:          0  itMISS:          0  dtACCESS:          0  dtHIT:          0  dtMISS:          0
cpu0_L2C RFO          ACCESS:     159665  HIT:      50493  MISS:     109172  iACCESS:          0  iHIT:          0  iMISS:          0  dACCESS:     159665  dHIT:      50493  dMISS:     109172  itACCESS:          0  itHIT:          0  itMISS:          0  dtACCESS:          0  dtHIT:          0  dtMISS:          0
cpu0_L2C PREFETCH     ACCESS:    4701720  HIT:    1099863  MISS:    3601857  iACCESS:    2540384  iHIT:     722061  iMISS:    1818323  dACCESS:    2161336  dHIT:     377802  dMISS:    1783534  itACCESS:          0  itHIT:          0  itMISS:          0  dtACCESS:          0  dtHIT:          0  dtMISS:          0
cpu0_L2C WRITE        ACCESS:     282870  HIT:     135630  MISS:     147240  iACCESS:          0  iHIT:          0  iMISS:          0  dACCESS:     282870  dHIT:     135630  dMISS:     147240  itACCESS:          0  itHIT:          0  itMISS:          0  dtACCESS:          0  dtHIT:          0  dtMISS:          0
cpu0_L2C TRANSLATION  ACCESS:     203939  HIT:     118502  MISS:      85437  iACCESS:          0  iHIT:          0  iMISS:          0  dACCESS:          0  dHIT:          0  dMISS:          0  itACCESS:      56004  itHIT:      39771  itMISS:      16233  dtACCESS:     147935  dtHIT:      78731  dtMISS:      69204
cpu0_L2C PREFETCH  REQUESTED:    1408923  ISSUED:    1408923  CROSSED:          0  USEFUL:     418486  USELESS:     380912
cpu0_L2C AVERAGE iMISS LATENCY: 14.9196 cycles
cpu0_L2C AVERAGE dMISS LATENCY: 25.2826 cycles
cpu0_L2C AVERAGE itMISS LATENCY: 0.382502 cycles
cpu0_L2C AVERAGE dtMISS LATENCY: 1.387 cycles
cpu0_L2C PAGE CROSSINGS (TLB HIT):         0 
cpu0_L2C PAGE CROSSINGS (TLB MISS):         0 
cpu0_L2C AVERAGE MISS LATENCY: 41.9716 cycles
LLC TOTAL       ACCESS:    5246452  HIT:    4441508  MISS:     804944  iACCESS:    2401501  iHIT:    2172849  iMISS:     228652  dACCESS:    2759514  dHIT:    2227400  dMISS:     532114  itACCESS:      16233  itHIT:       6146  itMISS:      10087  dtACCESS:      69204  dtHIT:      35113  dtMISS:      34091
LLC LOAD         ACCESS:    1419872  HIT:    1241154  MISS:     178718  iACCESS:     636715  iHIT:     588775  iMISS:      47940  dACCESS:     783157  dHIT:     652379  dMISS:     130778  itACCESS:          0  itHIT:          0  itMISS:          0  dtACCESS:          0  dtHIT:          0  dtMISS:          0
LLC RFO          ACCESS:     109165  HIT:      73827  MISS:      35338  iACCESS:          0  iHIT:          0  iMISS:          0  dACCESS:     109165  dHIT:      73827  dMISS:      35338  itACCESS:          0  itHIT:          0  itMISS:          0  dtACCESS:          0  dtHIT:          0  dtMISS:          0
LLC PREFETCH     ACCESS:    3494629  HIT:    2956632  MISS:     537997  iACCESS:    1764786  iHIT:    1584074  iMISS:     180712  dACCESS:    1729843  dHIT:    1372558  dMISS:     357285  itACCESS:          0  itHIT:          0  itMISS:          0  dtACCESS:          0  dtHIT:          0  dtMISS:          0
LLC WRITE        ACCESS:     137349  HIT:     128636  MISS:       8713  iACCESS:          0  iHIT:          0  iMISS:          0  dACCESS:     137349  dHIT:     128636  dMISS:       8713  itACCESS:          0  itHIT:          0  itMISS:          0  dtACCESS:          0  dtHIT:          0  dtMISS:          0
LLC TRANSLATION  ACCESS:      85437  HIT:      41259  MISS:      44178  iACCESS:          0  iHIT:          0  iMISS:          0  dACCESS:          0  dHIT:          0  dMISS:          0  itACCESS:      16233  itHIT:       6146  itMISS:      10087  dtACCESS:      69204  dtHIT:      35113  dtMISS:      34091
LLC PREFETCH  REQUESTED:          0  ISSUED:          0  CROSSED:          0  USEFUL:          0  USELESS:          0
LLC AVERAGE iMISS LATENCY: 41.9027 cycles
LLC AVERAGE dMISS LATENCY: 105.602 cycles
LLC AVERAGE itMISS LATENCY: 2.15467 cycles
LLC AVERAGE dtMISS LATENCY: 7.57133 cycles
LLC PAGE CROSSINGS (TLB HIT):         0 
LLC PAGE CROSSINGS (TLB MISS):         0 
LLC AVERAGE MISS LATENCY: 157.231 cycles

PageTableWalker TOTAL       ACCESS:      86765  
PageTableWalker AVERAGE LATENCY: 4.55541 cycles
PageTableWalker TOTAL LATENCY: 395250 cycles

DRAM Statistics
Channel 0
 RQ ROW_BUFFER_HIT:     216041
  ROW_BUFFER_MISS:     580132
 AVG DBUS CONGESTED CYCLE:    3.62931
 WQ ROW_BUFFER_HIT:      15851
  ROW_BUFFER_MISS:      21321  FULL:          0

