last_page:0x200000000000000
VMEM_RES_CAP:0x100000
PAGE_SIZE:4096
LOG2_PAGE_SIZE:12
LOG2_PAGE_TABLE_SIZE:9
page_table_levels:5
WARNING: physical memory size is smaller than virtual memory size
FDiP enabled with aggresivity 16

*** ChampSim Multicore Out-of-Order Simulator ***

Warmup Instructions: 50000000
Simulation Instructions: 100000000
Number of CPUs: 1
Small page size: 4096
Large page size: 2097152

CPU 0 Bimodal branch predictor
Basic BTB sets: 1024 ways: 8 indirect buffer size: 4096 RAS size: 64
Instruction page size distrubution: 0
Loading instruction page size distribution from /home/bsc/bsc018186/scratch/itp_asplos25_AE/dump/srv537_ap.pdst
Data page size distrubution: 0
Loading data page size distribution from /home/bsc/bsc018186/scratch/itp_asplos25_AE/dump/srv537_ap.pdst
cpu0_L2C IP-based stride prefetcher
cpu0_L1D next line prefetcher
CHiRPing...
cpu0_L1I next line prefetcher
Off-chip DRAM Size: 4 GiB Channels: 1 Width: 64-bit Data Rate: 3200 MT/s
Heartbeat CPU 0 instructions: 10000003 cycles: 2500328 heartbeat IPC: 3.99948 cumulative IPC: 3.99948 (Simulation time: 0 hr 0 min 38 sec) 
Heartbeat CPU 0 instructions: 20000001 cycles: 5000404 heartbeat IPC: 3.99988 cumulative IPC: 3.99968 (Simulation time: 0 hr 1 min 18 sec) 
Heartbeat CPU 0 instructions: 30000002 cycles: 7502246 heartbeat IPC: 3.99706 cumulative IPC: 3.99881 (Simulation time: 0 hr 1 min 59 sec) 
Heartbeat CPU 0 instructions: 40000001 cycles: 10002338 heartbeat IPC: 3.99986 cumulative IPC: 3.99907 (Simulation time: 0 hr 2 min 40 sec) 
Heartbeat CPU 0 instructions: 50000003 cycles: 12502345 heartbeat IPC: 3.99999 cumulative IPC: 3.99925 (Simulation time: 0 hr 3 min 22 sec) 
Warmup finished CPU 0 instructions: 50000003 cycles: 12502346 cumulative IPC: 3.99925 (Simulation time: 0 hr 3 min 22 sec) 

Warmup complete CPU 0 instructions: 50000003 cycles: 12502346 (Simulation time: 0 hr 3 min 22 sec) 

Heartbeat CPU 0 instructions: 60000002 cycles: 31257012 heartbeat IPC: 0.533201 cumulative IPC: 0.533201 (Simulation time: 0 hr 4 min 33 sec) 
Heartbeat CPU 0 instructions: 70000004 cycles: 48920243 heartbeat IPC: 0.566148 cumulative IPC: 0.549181 (Simulation time: 0 hr 5 min 43 sec) 
Heartbeat CPU 0 instructions: 80000000 cycles: 68537075 heartbeat IPC: 0.509767 cumulative IPC: 0.535383 (Simulation time: 0 hr 6 min 55 sec) 
Heartbeat CPU 0 instructions: 90000004 cycles: 86837534 heartbeat IPC: 0.546435 cumulative IPC: 0.538104 (Simulation time: 0 hr 8 min 5 sec) 
Heartbeat CPU 0 instructions: 100000001 cycles: 105757776 heartbeat IPC: 0.528535 cumulative IPC: 0.536162 (Simulation time: 0 hr 9 min 16 sec) 
*** Reached end of trace: /gpfs/projects/bsc18/MN4/bsc18/romol/ChampSim/traces/qualcomm_srv/srv537_ap.champsimtrace.xz
Heartbeat CPU 0 instructions: 110000002 cycles: 123731946 heartbeat IPC: 0.556354 cumulative IPC: 0.539425 (Simulation time: 0 hr 10 min 25 sec) 
Heartbeat CPU 0 instructions: 120000003 cycles: 141709080 heartbeat IPC: 0.556263 cumulative IPC: 0.541768 (Simulation time: 0 hr 11 min 34 sec) 
Heartbeat CPU 0 instructions: 130000001 cycles: 160259636 heartbeat IPC: 0.539068 cumulative IPC: 0.541429 (Simulation time: 0 hr 12 min 45 sec) 
Heartbeat CPU 0 instructions: 140000001 cycles: 179573706 heartbeat IPC: 0.517758 cumulative IPC: 0.538692 (Simulation time: 0 hr 13 min 56 sec) 
Heartbeat CPU 0 instructions: 150000001 cycles: 197957090 heartbeat IPC: 0.54397 cumulative IPC: 0.539216 (Simulation time: 0 hr 15 min 6 sec) 
Simulation finished CPU 0 instructions: 100000001 cycles: 185454746 cumulative IPC: 0.539216 (Simulation time: 0 hr 15 min 6 sec) 

Simulation complete CPU 0 instructions: 100000001 cycles: 185454746 (Simulation time: 0 hr 15 min 6 sec) 


ChampSim completed all CPUs

Saving instructions large page distribution to /home/bsc/bsc018186/scratch/itp_asplos25_AE/dump/srv537_ap.pdst...
Saving data large page distribution to /home/bsc/bsc018186/scratch/itp_asplos25_AE/dump/srv537_ap.pdst...
=== Simulation ===
CPU 0 runs /gpfs/projects/bsc18/MN4/bsc18/romol/ChampSim/traces/qualcomm_srv/srv537_ap.champsimtrace.xz

Region of Interest Statistics

CPU 0 cumulative IPC: 0.539216 instructions: 100000001 cycles: 185454746
CPU 0 Branch Prediction Accuracy: 80.1094% MPKI: 35.9059 Average ROB Occupancy at Mispredict: 10.2301
Branch type MPKI
BRANCH_DIRECT_JUMP: 1.34792
BRANCH_INDIRECT: 18.177
BRANCH_CONDITIONAL: 11.5217
BRANCH_DIRECT_CALL: 2.48336
BRANCH_INDIRECT_CALL: 0.66396
BRANCH_RETURN: 1.71192

Instructions large pages: 0
Instructions small pages: 1153
Large page distribution for instructions: 0%

Data large pages: 0
Data small pages: 5424
Large page distribution for data: 0%

cpu0_L1I TOTAL       ACCESS:   36241350  HIT:   27841532  MISS:    8399818  iACCESS:   36241350  iHIT:   27841532  iMISS:    8399818  dACCESS:          0  dHIT:          0  dMISS:          0  itACCESS:          0  itHIT:          0  itMISS:          0  dtACCESS:          0  dtHIT:          0  dtMISS:          0
cpu0_L1I LOAD         ACCESS:   10559632  HIT:    8253278  MISS:    2306354  iACCESS:   10559632  iHIT:    8253278  iMISS:    2306354  dACCESS:          0  dHIT:          0  dMISS:          0  itACCESS:          0  itHIT:          0  itMISS:          0  dtACCESS:          0  dtHIT:          0  dtMISS:          0
cpu0_L1I RFO          ACCESS:          0  HIT:          0  MISS:          0  iACCESS:          0  iHIT:          0  iMISS:          0  dACCESS:          0  dHIT:          0  dMISS:          0  itACCESS:          0  itHIT:          0  itMISS:          0  dtACCESS:          0  dtHIT:          0  dtMISS:          0
cpu0_L1I PREFETCH     ACCESS:   25681718  HIT:   19588254  MISS:    6093464  iACCESS:   25681718  iHIT:   19588254  iMISS:    6093464  dACCESS:          0  dHIT:          0  dMISS:          0  itACCESS:          0  itHIT:          0  itMISS:          0  dtACCESS:          0  dtHIT:          0  dtMISS:          0
cpu0_L1I WRITE        ACCESS:          0  HIT:          0  MISS:          0  iACCESS:          0  iHIT:          0  iMISS:          0  dACCESS:          0  dHIT:          0  dMISS:          0  itACCESS:          0  itHIT:          0  itMISS:          0  dtACCESS:          0  dtHIT:          0  dtMISS:          0
cpu0_L1I TRANSLATION  ACCESS:          0  HIT:          0  MISS:          0  iACCESS:          0  iHIT:          0  iMISS:          0  dACCESS:          0  dHIT:          0  dMISS:          0  itACCESS:          0  itHIT:          0  itMISS:          0  dtACCESS:          0  dtHIT:          0  dtMISS:          0
cpu0_L1I PREFETCH  REQUESTED:   28068580  ISSUED:   28067521  CROSSED:          0  USEFUL:    2008258  USELESS:     661428
cpu0_L1I AVERAGE iMISS LATENCY: 18.5268 cycles
cpu0_L1I AVERAGE dMISS LATENCY: 0 cycles
cpu0_L1I AVERAGE itMISS LATENCY: 0 cycles
cpu0_L1I AVERAGE dtMISS LATENCY: 0 cycles
cpu0_L1I PAGE CROSSINGS (TLB HIT):         0 
cpu0_L1I PAGE CROSSINGS (TLB MISS):         0 
cpu0_L1I AVERAGE MISS LATENCY: 18.5268 cycles
cpu0_ITLB TOTAL       ACCESS:   30285753  HIT:   28349026  MISS:    1936727  iACCESS:   30285753  iHIT:   28349026  iMISS:    1936727  dACCESS:          0  dHIT:          0  dMISS:          0  itACCESS:          0  itHIT:          0  itMISS:          0  dtACCESS:          0  dtHIT:          0  dtMISS:          0
cpu0_ITLB LOAD         ACCESS:   30285753  HIT:   28349026  MISS:    1936727  iACCESS:   30285753  iHIT:   28349026  iMISS:    1936727  dACCESS:          0  dHIT:          0  dMISS:          0  itACCESS:          0  itHIT:          0  itMISS:          0  dtACCESS:          0  dtHIT:          0  dtMISS:          0
cpu0_ITLB RFO          ACCESS:          0  HIT:          0  MISS:          0  iACCESS:          0  iHIT:          0  iMISS:          0  dACCESS:          0  dHIT:          0  dMISS:          0  itACCESS:          0  itHIT:          0  itMISS:          0  dtACCESS:          0  dtHIT:          0  dtMISS:          0
cpu0_ITLB PREFETCH     ACCESS:          0  HIT:          0  MISS:          0  iACCESS:          0  iHIT:          0  iMISS:          0  dACCESS:          0  dHIT:          0  dMISS:          0  itACCESS:          0  itHIT:          0  itMISS:          0  dtACCESS:          0  dtHIT:          0  dtMISS:          0
cpu0_ITLB WRITE        ACCESS:          0  HIT:          0  MISS:          0  iACCESS:          0  iHIT:          0  iMISS:          0  dACCESS:          0  dHIT:          0  dMISS:          0  itACCESS:          0  itHIT:          0  itMISS:          0  dtACCESS:          0  dtHIT:          0  dtMISS:          0
cpu0_ITLB TRANSLATION  ACCESS:          0  HIT:          0  MISS:          0  iACCESS:          0  iHIT:          0  iMISS:          0  dACCESS:          0  dHIT:          0  dMISS:          0  itACCESS:          0  itHIT:          0  itMISS:          0  dtACCESS:          0  dtHIT:          0  dtMISS:          0
cpu0_ITLB PREFETCH  REQUESTED:          0  ISSUED:          0  CROSSED:          0  USEFUL:     329282  USELESS:      66150
cpu0_ITLB AVERAGE iMISS LATENCY: 4.27953 cycles
cpu0_ITLB AVERAGE dMISS LATENCY: 0 cycles
cpu0_ITLB AVERAGE itMISS LATENCY: 0 cycles
cpu0_ITLB AVERAGE dtMISS LATENCY: 0 cycles
cpu0_ITLB PAGE CROSSINGS (TLB HIT):         0 
cpu0_ITLB PAGE CROSSINGS (TLB MISS):         0 
cpu0_ITLB AVERAGE MISS LATENCY: 4.27953 cycles
cpu0_DTLB TOTAL       ACCESS:   28060069  HIT:   26310881  MISS:    1749188  iACCESS:          0  iHIT:          0  iMISS:          0  dACCESS:   28060069  dHIT:   26310881  dMISS:    1749188  itACCESS:          0  itHIT:          0  itMISS:          0  dtACCESS:          0  dtHIT:          0  dtMISS:          0
cpu0_DTLB LOAD         ACCESS:   28060069  HIT:   26310881  MISS:    1749188  iACCESS:          0  iHIT:          0  iMISS:          0  dACCESS:   28060069  dHIT:   26310881  dMISS:    1749188  itACCESS:          0  itHIT:          0  itMISS:          0  dtACCESS:          0  dtHIT:          0  dtMISS:          0
cpu0_DTLB RFO          ACCESS:          0  HIT:          0  MISS:          0  iACCESS:          0  iHIT:          0  iMISS:          0  dACCESS:          0  dHIT:          0  dMISS:          0  itACCESS:          0  itHIT:          0  itMISS:          0  dtACCESS:          0  dtHIT:          0  dtMISS:          0
cpu0_DTLB PREFETCH     ACCESS:          0  HIT:          0  MISS:          0  iACCESS:          0  iHIT:          0  iMISS:          0  dACCESS:          0  dHIT:          0  dMISS:          0  itACCESS:          0  itHIT:          0  itMISS:          0  dtACCESS:          0  dtHIT:          0  dtMISS:          0
cpu0_DTLB WRITE        ACCESS:          0  HIT:          0  MISS:          0  iACCESS:          0  iHIT:          0  iMISS:          0  dACCESS:          0  dHIT:          0  dMISS:          0  itACCESS:          0  itHIT:          0  itMISS:          0  dtACCESS:          0  dtHIT:          0  dtMISS:          0
cpu0_DTLB TRANSLATION  ACCESS:          0  HIT:          0  MISS:          0  iACCESS:          0  iHIT:          0  iMISS:          0  dACCESS:          0  dHIT:          0  dMISS:          0  itACCESS:          0  itHIT:          0  itMISS:          0  dtACCESS:          0  dtHIT:          0  dtMISS:          0
cpu0_DTLB PREFETCH  REQUESTED:          0  ISSUED:          0  CROSSED:          0  USEFUL:          0  USELESS:          0
cpu0_DTLB AVERAGE iMISS LATENCY: 0 cycles
cpu0_DTLB AVERAGE dMISS LATENCY: 13.1094 cycles
cpu0_DTLB AVERAGE itMISS LATENCY: 0 cycles
cpu0_DTLB AVERAGE dtMISS LATENCY: 0 cycles
cpu0_DTLB PAGE CROSSINGS (TLB HIT):         0 
cpu0_DTLB PAGE CROSSINGS (TLB MISS):         0 
cpu0_DTLB AVERAGE MISS LATENCY: 13.1094 cycles
cpu0_STLB TOTAL       ACCESS:    1500529  HIT:    1262573  MISS:     237956  iACCESS:     395442  iHIT:     305918  iMISS:      89524  dACCESS:    1105087  dHIT:     956655  dMISS:     148432  itACCESS:          0  itHIT:          0  itMISS:          0  dtACCESS:          0  dtHIT:          0  dtMISS:          0
cpu0_STLB LOAD         ACCESS:    1500529  HIT:    1262573  MISS:     237956  iACCESS:     395442  iHIT:     305918  iMISS:      89524  dACCESS:    1105087  dHIT:     956655  dMISS:     148432  itACCESS:          0  itHIT:          0  itMISS:          0  dtACCESS:          0  dtHIT:          0  dtMISS:          0
cpu0_STLB RFO          ACCESS:          0  HIT:          0  MISS:          0  iACCESS:          0  iHIT:          0  iMISS:          0  dACCESS:          0  dHIT:          0  dMISS:          0  itACCESS:          0  itHIT:          0  itMISS:          0  dtACCESS:          0  dtHIT:          0  dtMISS:          0
cpu0_STLB PREFETCH     ACCESS:          0  HIT:          0  MISS:          0  iACCESS:          0  iHIT:          0  iMISS:          0  dACCESS:          0  dHIT:          0  dMISS:          0  itACCESS:          0  itHIT:          0  itMISS:          0  dtACCESS:          0  dtHIT:          0  dtMISS:          0
cpu0_STLB WRITE        ACCESS:          0  HIT:          0  MISS:          0  iACCESS:          0  iHIT:          0  iMISS:          0  dACCESS:          0  dHIT:          0  dMISS:          0  itACCESS:          0  itHIT:          0  itMISS:          0  dtACCESS:          0  dtHIT:          0  dtMISS:          0
cpu0_STLB TRANSLATION  ACCESS:          0  HIT:          0  MISS:          0  iACCESS:          0  iHIT:          0  iMISS:          0  dACCESS:          0  dHIT:          0  dMISS:          0  itACCESS:          0  itHIT:          0  itMISS:          0  dtACCESS:          0  dtHIT:          0  dtMISS:          0
cpu0_STLB PREFETCH  REQUESTED:          0  ISSUED:          0  CROSSED:          0  USEFUL:          0  USELESS:          0
cpu0_STLB AVERAGE iMISS LATENCY: 21.5806 cycles
cpu0_STLB AVERAGE dMISS LATENCY: 59.1893 cycles
cpu0_STLB AVERAGE itMISS LATENCY: 0 cycles
cpu0_STLB AVERAGE dtMISS LATENCY: 0 cycles
cpu0_STLB PAGE CROSSINGS (TLB HIT):         0 
cpu0_STLB PAGE CROSSINGS (TLB MISS):         0 
cpu0_STLB AVERAGE MISS LATENCY: 80.7699 cycles
cpu0_L1D TOTAL       ACCESS:   42984225  HIT:   38602390  MISS:    4381835  iACCESS:          0  iHIT:          0  iMISS:          0  dACCESS:   42682717  dHIT:   38577565  dMISS:    4105152  itACCESS:      95684  itHIT:      13019  itMISS:      82665  dtACCESS:     205824  dtHIT:      11806  dtMISS:     194018
cpu0_L1D LOAD         ACCESS:   19608216  HIT:   17724238  MISS:    1883978  iACCESS:          0  iHIT:          0  iMISS:          0  dACCESS:   19608216  dHIT:   17724238  dMISS:    1883978  itACCESS:          0  itHIT:          0  itMISS:          0  dtACCESS:          0  dtHIT:          0  dtMISS:          0
cpu0_L1D RFO          ACCESS:          0  HIT:          0  MISS:          0  iACCESS:          0  iHIT:          0  iMISS:          0  dACCESS:          0  dHIT:          0  dMISS:          0  itACCESS:          0  itHIT:          0  itMISS:          0  dtACCESS:          0  dtHIT:          0  dtMISS:          0
cpu0_L1D PREFETCH     ACCESS:   12948676  HIT:   11167065  MISS:    1781611  iACCESS:          0  iHIT:          0  iMISS:          0  dACCESS:   12948676  dHIT:   11167065  dMISS:    1781611  itACCESS:          0  itHIT:          0  itMISS:          0  dtACCESS:          0  dtHIT:          0  dtMISS:          0
cpu0_L1D WRITE        ACCESS:   10125825  HIT:    9686262  MISS:     439563  iACCESS:          0  iHIT:          0  iMISS:          0  dACCESS:   10125825  dHIT:    9686262  dMISS:     439563  itACCESS:          0  itHIT:          0  itMISS:          0  dtACCESS:          0  dtHIT:          0  dtMISS:          0
cpu0_L1D TRANSLATION  ACCESS:     301508  HIT:      24825  MISS:     276683  iACCESS:          0  iHIT:          0  iMISS:          0  dACCESS:          0  dHIT:          0  dMISS:          0  itACCESS:      95684  itHIT:      13019  itMISS:      82665  dtACCESS:     205824  dtHIT:      11806  dtMISS:     194018
cpu0_L1D PREFETCH  REQUESTED:   19608216  ISSUED:   17323045  CROSSED:          0  USEFUL:     319985  USELESS:     717200
cpu0_L1D AVERAGE iMISS LATENCY: 0 cycles
cpu0_L1D AVERAGE dMISS LATENCY: 38.341 cycles
cpu0_L1D AVERAGE itMISS LATENCY: 0.996367 cycles
cpu0_L1D AVERAGE dtMISS LATENCY: 2.75917 cycles
cpu0_L1D PAGE CROSSINGS (TLB HIT):         0 
cpu0_L1D PAGE CROSSINGS (TLB MISS):         0 
cpu0_L1D AVERAGE MISS LATENCY: 42.0965 cycles
cpu0_L2C TOTAL       ACCESS:    7388899  HIT:    1679790  MISS:    5709109  iACCESS:    3404774  iHIT:     863916  iMISS:    2540858  dACCESS:    3714862  dHIT:     655123  dMISS:    3059739  itACCESS:      82665  itHIT:      56185  itMISS:      26480  dtACCESS:     186598  dtHIT:     104566  dtMISS:      82032
cpu0_L2C LOAD         ACCESS:    1742800  HIT:     263725  MISS:    1479075  iACCESS:     771593  iHIT:     138186  iMISS:     633407  dACCESS:     971207  dHIT:     125539  dMISS:     845668  itACCESS:          0  itHIT:          0  itMISS:          0  dtACCESS:          0  dtHIT:          0  dtMISS:          0
cpu0_L2C RFO          ACCESS:     160370  HIT:      41181  MISS:     119189  iACCESS:          0  iHIT:          0  iMISS:          0  dACCESS:     160370  dHIT:      41181  dMISS:     119189  itACCESS:          0  itHIT:          0  itMISS:          0  dtACCESS:          0  dtHIT:          0  dtMISS:          0
cpu0_L2C PREFETCH     ACCESS:    4934689  HIT:    1086718  MISS:    3847971  iACCESS:    2633181  iHIT:     725730  iMISS:    1907451  dACCESS:    2301508  dHIT:     360988  dMISS:    1940520  itACCESS:          0  itHIT:          0  itMISS:          0  dtACCESS:          0  dtHIT:          0  dtMISS:          0
cpu0_L2C WRITE        ACCESS:     281777  HIT:     127415  MISS:     154362  iACCESS:          0  iHIT:          0  iMISS:          0  dACCESS:     281777  dHIT:     127415  dMISS:     154362  itACCESS:          0  itHIT:          0  itMISS:          0  dtACCESS:          0  dtHIT:          0  dtMISS:          0
cpu0_L2C TRANSLATION  ACCESS:     269263  HIT:     160751  MISS:     108512  iACCESS:          0  iHIT:          0  iMISS:          0  dACCESS:          0  dHIT:          0  dMISS:          0  itACCESS:      82665  itHIT:      56185  itMISS:      26480  dtACCESS:     186598  dtHIT:     104566  dtMISS:      82032
cpu0_L2C PREFETCH  REQUESTED:    1533746  ISSUED:    1533718  CROSSED:          0  USEFUL:     429900  USELESS:     430139
cpu0_L2C AVERAGE iMISS LATENCY: 21.9179 cycles
cpu0_L2C AVERAGE dMISS LATENCY: 36.9735 cycles
cpu0_L2C AVERAGE itMISS LATENCY: 0.629428 cycles
cpu0_L2C AVERAGE dtMISS LATENCY: 1.80801 cycles
cpu0_L2C PAGE CROSSINGS (TLB HIT):         0 
cpu0_L2C PAGE CROSSINGS (TLB MISS):         0 
cpu0_L2C AVERAGE MISS LATENCY: 61.3288 cycles
LLC TOTAL       ACCESS:    5525575  HIT:    3941639  MISS:    1583936  iACCESS:    2463303  iHIT:    1926996  iMISS:     536307  dACCESS:    2953760  dHIT:    1971254  dMISS:     982506  itACCESS:      26480  itHIT:       8787  itMISS:      17693  dtACCESS:      82032  dtHIT:      34602  dtMISS:      47430
LLC LOAD         ACCESS:    1472348  HIT:    1110355  MISS:     361993  iACCESS:     632050  iHIT:     518861  iMISS:     113189  dACCESS:     840298  dHIT:     591494  dMISS:     248804  itACCESS:          0  itHIT:          0  itMISS:          0  dtACCESS:          0  dtHIT:          0  dtMISS:          0
LLC RFO          ACCESS:     119187  HIT:      65397  MISS:      53790  iACCESS:          0  iHIT:          0  iMISS:          0  dACCESS:     119187  dHIT:      65397  dMISS:      53790  itACCESS:          0  itHIT:          0  itMISS:          0  dtACCESS:          0  dtHIT:          0  dtMISS:          0
LLC PREFETCH     ACCESS:    3666944  HIT:    2574666  MISS:    1092278  iACCESS:    1831253  iHIT:    1408135  iMISS:     423118  dACCESS:    1835691  dHIT:    1166531  dMISS:     669160  itACCESS:          0  itHIT:          0  itMISS:          0  dtACCESS:          0  dtHIT:          0  dtMISS:          0
LLC WRITE        ACCESS:     158584  HIT:     147832  MISS:      10752  iACCESS:          0  iHIT:          0  iMISS:          0  dACCESS:     158584  dHIT:     147832  dMISS:      10752  itACCESS:          0  itHIT:          0  itMISS:          0  dtACCESS:          0  dtHIT:          0  dtMISS:          0
LLC TRANSLATION  ACCESS:     108512  HIT:      43389  MISS:      65123  iACCESS:          0  iHIT:          0  iMISS:          0  dACCESS:          0  dHIT:          0  dMISS:          0  itACCESS:      26480  itHIT:       8787  itMISS:      17693  dtACCESS:      82032  dtHIT:      34602  dtMISS:      47430
LLC PREFETCH  REQUESTED:          0  ISSUED:          0  CROSSED:          0  USEFUL:          0  USELESS:          0
LLC AVERAGE iMISS LATENCY: 48.9003 cycles
LLC AVERAGE dMISS LATENCY: 100.204 cycles
LLC AVERAGE itMISS LATENCY: 1.9406 cycles
LLC AVERAGE dtMISS LATENCY: 5.50475 cycles
LLC PAGE CROSSINGS (TLB HIT):         0 
LLC PAGE CROSSINGS (TLB MISS):         0 
LLC AVERAGE MISS LATENCY: 156.55 cycles

PageTableWalker TOTAL       ACCESS:     119327  
PageTableWalker AVERAGE LATENCY: 4.28815 cycles
PageTableWalker TOTAL LATENCY: 511691 cycles

DRAM Statistics
Channel 0
 RQ ROW_BUFFER_HIT:     486294
  ROW_BUFFER_MISS:    1068251
 AVG DBUS CONGESTED CYCLE:    3.64377
 WQ ROW_BUFFER_HIT:      32581
  ROW_BUFFER_MISS:      26834  FULL:          0

