last_page:0x200000000000000
VMEM_RES_CAP:0x100000
PAGE_SIZE:4096
LOG2_PAGE_SIZE:12
LOG2_PAGE_TABLE_SIZE:9
page_table_levels:5
WARNING: physical memory size is smaller than virtual memory size
FDiP enabled with aggresivity 16

*** ChampSim Multicore Out-of-Order Simulator ***

Warmup Instructions: 50000000
Simulation Instructions: 100000000
Number of CPUs: 1
Small page size: 4096
Large page size: 2097152

CPU 0 Bimodal branch predictor
Basic BTB sets: 1024 ways: 8 indirect buffer size: 4096 RAS size: 64
Instruction page size distrubution: 0
Loading instruction page size distribution from /home/bsc/bsc018186/scratch/itp_asplos25_AE/dump/srv540_ap.pdst
Data page size distrubution: 0
Loading data page size distribution from /home/bsc/bsc018186/scratch/itp_asplos25_AE/dump/srv540_ap.pdst
cpu0_L2C IP-based stride prefetcher
cpu0_L1D next line prefetcher
CHiRPing...
cpu0_L1I next line prefetcher
Off-chip DRAM Size: 4 GiB Channels: 1 Width: 64-bit Data Rate: 3200 MT/s
Heartbeat CPU 0 instructions: 10000003 cycles: 2500134 heartbeat IPC: 3.99979 cumulative IPC: 3.99979 (Simulation time: 0 hr 0 min 40 sec) 
Heartbeat CPU 0 instructions: 20000000 cycles: 5000299 heartbeat IPC: 3.99974 cumulative IPC: 3.99977 (Simulation time: 0 hr 1 min 21 sec) 
Heartbeat CPU 0 instructions: 30000001 cycles: 7500310 heartbeat IPC: 3.99999 cumulative IPC: 3.99984 (Simulation time: 0 hr 2 min 3 sec) 
Heartbeat CPU 0 instructions: 40000001 cycles: 10000364 heartbeat IPC: 3.99992 cumulative IPC: 3.99986 (Simulation time: 0 hr 2 min 46 sec) 
Heartbeat CPU 0 instructions: 50000003 cycles: 12500412 heartbeat IPC: 3.99993 cumulative IPC: 3.99987 (Simulation time: 0 hr 3 min 28 sec) 
Warmup finished CPU 0 instructions: 50000003 cycles: 12500413 cumulative IPC: 3.99987 (Simulation time: 0 hr 3 min 28 sec) 

Warmup complete CPU 0 instructions: 50000003 cycles: 12500413 (Simulation time: 0 hr 3 min 28 sec) 

Heartbeat CPU 0 instructions: 60000001 cycles: 32570036 heartbeat IPC: 0.498266 cumulative IPC: 0.498266 (Simulation time: 0 hr 4 min 44 sec) 
Heartbeat CPU 0 instructions: 70000002 cycles: 54299501 heartbeat IPC: 0.460205 cumulative IPC: 0.47848 (Simulation time: 0 hr 6 min 2 sec) 
Heartbeat CPU 0 instructions: 80000000 cycles: 74719344 heartbeat IPC: 0.48972 cumulative IPC: 0.482169 (Simulation time: 0 hr 7 min 18 sec) 
Heartbeat CPU 0 instructions: 90000001 cycles: 97050333 heartbeat IPC: 0.447809 cumulative IPC: 0.473094 (Simulation time: 0 hr 8 min 38 sec) 
Heartbeat CPU 0 instructions: 100000000 cycles: 118429915 heartbeat IPC: 0.467736 cumulative IPC: 0.472013 (Simulation time: 0 hr 9 min 56 sec) 
*** Reached end of trace: /gpfs/projects/bsc18/MN4/bsc18/romol/ChampSim/traces/qualcomm_srv/srv540_ap.champsimtrace.xz
Heartbeat CPU 0 instructions: 110000002 cycles: 140898443 heartbeat IPC: 0.445068 cumulative IPC: 0.467297 (Simulation time: 0 hr 11 min 15 sec) 
Heartbeat CPU 0 instructions: 120000002 cycles: 162525379 heartbeat IPC: 0.462387 cumulative IPC: 0.46659 (Simulation time: 0 hr 12 min 30 sec) 
Heartbeat CPU 0 instructions: 130000001 cycles: 183514705 heartbeat IPC: 0.476433 cumulative IPC: 0.467798 (Simulation time: 0 hr 13 min 45 sec) 
Heartbeat CPU 0 instructions: 140000001 cycles: 204295189 heartbeat IPC: 0.481221 cumulative IPC: 0.469252 (Simulation time: 0 hr 15 min 0 sec) 
Heartbeat CPU 0 instructions: 150000001 cycles: 227042889 heartbeat IPC: 0.439605 cumulative IPC: 0.466109 (Simulation time: 0 hr 16 min 17 sec) 
Simulation finished CPU 0 instructions: 100000003 cycles: 214542478 cumulative IPC: 0.466109 (Simulation time: 0 hr 16 min 17 sec) 

Simulation complete CPU 0 instructions: 100000003 cycles: 214542478 (Simulation time: 0 hr 16 min 17 sec) 


ChampSim completed all CPUs

Saving instructions large page distribution to /home/bsc/bsc018186/scratch/itp_asplos25_AE/dump/srv540_ap.pdst...
Saving data large page distribution to /home/bsc/bsc018186/scratch/itp_asplos25_AE/dump/srv540_ap.pdst...
=== Simulation ===
CPU 0 runs /gpfs/projects/bsc18/MN4/bsc18/romol/ChampSim/traces/qualcomm_srv/srv540_ap.champsimtrace.xz

Region of Interest Statistics

CPU 0 cumulative IPC: 0.466109 instructions: 100000003 cycles: 214542478
CPU 0 Branch Prediction Accuracy: 79.5913% MPKI: 36.6946 Average ROB Occupancy at Mispredict: 10.5776
Branch type MPKI
BRANCH_DIRECT_JUMP: 1.38632
BRANCH_INDIRECT: 18.7731
BRANCH_CONDITIONAL: 11.5695
BRANCH_DIRECT_CALL: 2.50793
BRANCH_INDIRECT_CALL: 0.65848
BRANCH_RETURN: 1.7994

Instructions large pages: 0
Instructions small pages: 1131
Large page distribution for instructions: 0%

Data large pages: 0
Data small pages: 4967
Large page distribution for data: 0%

cpu0_L1I TOTAL       ACCESS:   35783452  HIT:   27866551  MISS:    7916901  iACCESS:   35783452  iHIT:   27866551  iMISS:    7916901  dACCESS:          0  dHIT:          0  dMISS:          0  itACCESS:          0  itHIT:          0  itMISS:          0  dtACCESS:          0  dtHIT:          0  dtMISS:          0
cpu0_L1I LOAD         ACCESS:   10404212  HIT:    8232753  MISS:    2171459  iACCESS:   10404212  iHIT:    8232753  iMISS:    2171459  dACCESS:          0  dHIT:          0  dMISS:          0  itACCESS:          0  itHIT:          0  itMISS:          0  dtACCESS:          0  dtHIT:          0  dtMISS:          0
cpu0_L1I RFO          ACCESS:          0  HIT:          0  MISS:          0  iACCESS:          0  iHIT:          0  iMISS:          0  dACCESS:          0  dHIT:          0  dMISS:          0  itACCESS:          0  itHIT:          0  itMISS:          0  dtACCESS:          0  dtHIT:          0  dtMISS:          0
cpu0_L1I PREFETCH     ACCESS:   25379240  HIT:   19633798  MISS:    5745442  iACCESS:   25379240  iHIT:   19633798  iMISS:    5745442  dACCESS:          0  dHIT:          0  dMISS:          0  itACCESS:          0  itHIT:          0  itMISS:          0  dtACCESS:          0  dtHIT:          0  dtMISS:          0
cpu0_L1I WRITE        ACCESS:          0  HIT:          0  MISS:          0  iACCESS:          0  iHIT:          0  iMISS:          0  dACCESS:          0  dHIT:          0  dMISS:          0  itACCESS:          0  itHIT:          0  itMISS:          0  dtACCESS:          0  dtHIT:          0  dtMISS:          0
cpu0_L1I TRANSLATION  ACCESS:          0  HIT:          0  MISS:          0  iACCESS:          0  iHIT:          0  iMISS:          0  dACCESS:          0  dHIT:          0  dMISS:          0  itACCESS:          0  itHIT:          0  itMISS:          0  dtACCESS:          0  dtHIT:          0  dtMISS:          0
cpu0_L1I PREFETCH  REQUESTED:   27887857  ISSUED:   27887857  CROSSED:          0  USEFUL:    2003882  USELESS:     655594
cpu0_L1I AVERAGE iMISS LATENCY: 19.8861 cycles
cpu0_L1I AVERAGE dMISS LATENCY: 0 cycles
cpu0_L1I AVERAGE itMISS LATENCY: 0 cycles
cpu0_L1I AVERAGE dtMISS LATENCY: 0 cycles
cpu0_L1I PAGE CROSSINGS (TLB HIT):         0 
cpu0_L1I PAGE CROSSINGS (TLB MISS):         0 
cpu0_L1I AVERAGE MISS LATENCY: 19.8861 cycles
cpu0_ITLB TOTAL       ACCESS:   30105570  HIT:   28170878  MISS:    1934692  iACCESS:   30105570  iHIT:   28170878  iMISS:    1934692  dACCESS:          0  dHIT:          0  dMISS:          0  itACCESS:          0  itHIT:          0  itMISS:          0  dtACCESS:          0  dtHIT:          0  dtMISS:          0
cpu0_ITLB LOAD         ACCESS:   30105570  HIT:   28170878  MISS:    1934692  iACCESS:   30105570  iHIT:   28170878  iMISS:    1934692  dACCESS:          0  dHIT:          0  dMISS:          0  itACCESS:          0  itHIT:          0  itMISS:          0  dtACCESS:          0  dtHIT:          0  dtMISS:          0
cpu0_ITLB RFO          ACCESS:          0  HIT:          0  MISS:          0  iACCESS:          0  iHIT:          0  iMISS:          0  dACCESS:          0  dHIT:          0  dMISS:          0  itACCESS:          0  itHIT:          0  itMISS:          0  dtACCESS:          0  dtHIT:          0  dtMISS:          0
cpu0_ITLB PREFETCH     ACCESS:          0  HIT:          0  MISS:          0  iACCESS:          0  iHIT:          0  iMISS:          0  dACCESS:          0  dHIT:          0  dMISS:          0  itACCESS:          0  itHIT:          0  itMISS:          0  dtACCESS:          0  dtHIT:          0  dtMISS:          0
cpu0_ITLB WRITE        ACCESS:          0  HIT:          0  MISS:          0  iACCESS:          0  iHIT:          0  iMISS:          0  dACCESS:          0  dHIT:          0  dMISS:          0  itACCESS:          0  itHIT:          0  itMISS:          0  dtACCESS:          0  dtHIT:          0  dtMISS:          0
cpu0_ITLB TRANSLATION  ACCESS:          0  HIT:          0  MISS:          0  iACCESS:          0  iHIT:          0  iMISS:          0  dACCESS:          0  dHIT:          0  dMISS:          0  itACCESS:          0  itHIT:          0  itMISS:          0  dtACCESS:          0  dtHIT:          0  dtMISS:          0
cpu0_ITLB PREFETCH  REQUESTED:          0  ISSUED:          0  CROSSED:          0  USEFUL:     329143  USELESS:      64504
cpu0_ITLB AVERAGE iMISS LATENCY: 7.88909 cycles
cpu0_ITLB AVERAGE dMISS LATENCY: 0 cycles
cpu0_ITLB AVERAGE itMISS LATENCY: 0 cycles
cpu0_ITLB AVERAGE dtMISS LATENCY: 0 cycles
cpu0_ITLB PAGE CROSSINGS (TLB HIT):         0 
cpu0_ITLB PAGE CROSSINGS (TLB MISS):         0 
cpu0_ITLB AVERAGE MISS LATENCY: 7.88909 cycles
cpu0_DTLB TOTAL       ACCESS:   28084084  HIT:   26043783  MISS:    2040301  iACCESS:          0  iHIT:          0  iMISS:          0  dACCESS:   28084084  dHIT:   26043783  dMISS:    2040301  itACCESS:          0  itHIT:          0  itMISS:          0  dtACCESS:          0  dtHIT:          0  dtMISS:          0
cpu0_DTLB LOAD         ACCESS:   28084084  HIT:   26043783  MISS:    2040301  iACCESS:          0  iHIT:          0  iMISS:          0  dACCESS:   28084084  dHIT:   26043783  dMISS:    2040301  itACCESS:          0  itHIT:          0  itMISS:          0  dtACCESS:          0  dtHIT:          0  dtMISS:          0
cpu0_DTLB RFO          ACCESS:          0  HIT:          0  MISS:          0  iACCESS:          0  iHIT:          0  iMISS:          0  dACCESS:          0  dHIT:          0  dMISS:          0  itACCESS:          0  itHIT:          0  itMISS:          0  dtACCESS:          0  dtHIT:          0  dtMISS:          0
cpu0_DTLB PREFETCH     ACCESS:          0  HIT:          0  MISS:          0  iACCESS:          0  iHIT:          0  iMISS:          0  dACCESS:          0  dHIT:          0  dMISS:          0  itACCESS:          0  itHIT:          0  itMISS:          0  dtACCESS:          0  dtHIT:          0  dtMISS:          0
cpu0_DTLB WRITE        ACCESS:          0  HIT:          0  MISS:          0  iACCESS:          0  iHIT:          0  iMISS:          0  dACCESS:          0  dHIT:          0  dMISS:          0  itACCESS:          0  itHIT:          0  itMISS:          0  dtACCESS:          0  dtHIT:          0  dtMISS:          0
cpu0_DTLB TRANSLATION  ACCESS:          0  HIT:          0  MISS:          0  iACCESS:          0  iHIT:          0  iMISS:          0  dACCESS:          0  dHIT:          0  dMISS:          0  itACCESS:          0  itHIT:          0  itMISS:          0  dtACCESS:          0  dtHIT:          0  dtMISS:          0
cpu0_DTLB PREFETCH  REQUESTED:          0  ISSUED:          0  CROSSED:          0  USEFUL:          0  USELESS:          0
cpu0_DTLB AVERAGE iMISS LATENCY: 0 cycles
cpu0_DTLB AVERAGE dMISS LATENCY: 20.7596 cycles
cpu0_DTLB AVERAGE itMISS LATENCY: 0 cycles
cpu0_DTLB AVERAGE dtMISS LATENCY: 0 cycles
cpu0_DTLB PAGE CROSSINGS (TLB HIT):         0 
cpu0_DTLB PAGE CROSSINGS (TLB MISS):         0 
cpu0_DTLB AVERAGE MISS LATENCY: 20.7596 cycles
cpu0_STLB TOTAL       ACCESS:    1625703  HIT:    1378586  MISS:     247117  iACCESS:     393653  iHIT:     302574  iMISS:      91079  dACCESS:    1232050  dHIT:    1076012  dMISS:     156038  itACCESS:          0  itHIT:          0  itMISS:          0  dtACCESS:          0  dtHIT:          0  dtMISS:          0
cpu0_STLB LOAD         ACCESS:    1625703  HIT:    1378586  MISS:     247117  iACCESS:     393653  iHIT:     302574  iMISS:      91079  dACCESS:    1232050  dHIT:    1076012  dMISS:     156038  itACCESS:          0  itHIT:          0  itMISS:          0  dtACCESS:          0  dtHIT:          0  dtMISS:          0
cpu0_STLB RFO          ACCESS:          0  HIT:          0  MISS:          0  iACCESS:          0  iHIT:          0  iMISS:          0  dACCESS:          0  dHIT:          0  dMISS:          0  itACCESS:          0  itHIT:          0  itMISS:          0  dtACCESS:          0  dtHIT:          0  dtMISS:          0
cpu0_STLB PREFETCH     ACCESS:          0  HIT:          0  MISS:          0  iACCESS:          0  iHIT:          0  iMISS:          0  dACCESS:          0  dHIT:          0  dMISS:          0  itACCESS:          0  itHIT:          0  itMISS:          0  dtACCESS:          0  dtHIT:          0  dtMISS:          0
cpu0_STLB WRITE        ACCESS:          0  HIT:          0  MISS:          0  iACCESS:          0  iHIT:          0  iMISS:          0  dACCESS:          0  dHIT:          0  dMISS:          0  itACCESS:          0  itHIT:          0  itMISS:          0  dtACCESS:          0  dtHIT:          0  dtMISS:          0
cpu0_STLB TRANSLATION  ACCESS:          0  HIT:          0  MISS:          0  iACCESS:          0  iHIT:          0  iMISS:          0  dACCESS:          0  dHIT:          0  dMISS:          0  itACCESS:          0  itHIT:          0  itMISS:          0  dtACCESS:          0  dtHIT:          0  dtMISS:          0
cpu0_STLB PREFETCH  REQUESTED:          0  ISSUED:          0  CROSSED:          0  USEFUL:          0  USELESS:          0
cpu0_STLB AVERAGE iMISS LATENCY: 49.0455 cycles
cpu0_STLB AVERAGE dMISS LATENCY: 131.476 cycles
cpu0_STLB AVERAGE itMISS LATENCY: 0 cycles
cpu0_STLB AVERAGE dtMISS LATENCY: 0 cycles
cpu0_STLB PAGE CROSSINGS (TLB HIT):         0 
cpu0_STLB PAGE CROSSINGS (TLB MISS):         0 
cpu0_STLB AVERAGE MISS LATENCY: 180.522 cycles
cpu0_L1D TOTAL       ACCESS:   43043852  HIT:   38692708  MISS:    4351144  iACCESS:          0  iHIT:          0  iMISS:          0  dACCESS:   42732186  dHIT:   38667677  dMISS:    4064509  itACCESS:      97299  itHIT:      12882  itMISS:      84417  dtACCESS:     214367  dtHIT:      12149  dtMISS:     202218
cpu0_L1D LOAD         ACCESS:   19587663  HIT:   17714789  MISS:    1872874  iACCESS:          0  iHIT:          0  iMISS:          0  dACCESS:   19587663  dHIT:   17714789  dMISS:    1872874  itACCESS:          0  itHIT:          0  itMISS:          0  dtACCESS:          0  dtHIT:          0  dtMISS:          0
cpu0_L1D RFO          ACCESS:          0  HIT:          0  MISS:          0  iACCESS:          0  iHIT:          0  iMISS:          0  dACCESS:          0  dHIT:          0  dMISS:          0  itACCESS:          0  itHIT:          0  itMISS:          0  dtACCESS:          0  dtHIT:          0  dtMISS:          0
cpu0_L1D PREFETCH     ACCESS:   13038842  HIT:   11307536  MISS:    1731306  iACCESS:          0  iHIT:          0  iMISS:          0  dACCESS:   13038842  dHIT:   11307536  dMISS:    1731306  itACCESS:          0  itHIT:          0  itMISS:          0  dtACCESS:          0  dtHIT:          0  dtMISS:          0
cpu0_L1D WRITE        ACCESS:   10105681  HIT:    9645352  MISS:     460329  iACCESS:          0  iHIT:          0  iMISS:          0  dACCESS:   10105681  dHIT:    9645352  dMISS:     460329  itACCESS:          0  itHIT:          0  itMISS:          0  dtACCESS:          0  dtHIT:          0  dtMISS:          0
cpu0_L1D TRANSLATION  ACCESS:     311666  HIT:      25031  MISS:     286635  iACCESS:          0  iHIT:          0  iMISS:          0  dACCESS:          0  dHIT:          0  dMISS:          0  itACCESS:      97299  itHIT:      12882  itMISS:      84417  dtACCESS:     214367  dtHIT:      12149  dtMISS:     202218
cpu0_L1D PREFETCH  REQUESTED:   19587663  ISSUED:   17546016  CROSSED:          0  USEFUL:     320035  USELESS:     736420
cpu0_L1D AVERAGE iMISS LATENCY: 0 cycles
cpu0_L1D AVERAGE dMISS LATENCY: 41.8465 cycles
cpu0_L1D AVERAGE itMISS LATENCY: 2.60553 cycles
cpu0_L1D AVERAGE dtMISS LATENCY: 6.97675 cycles
cpu0_L1D PAGE CROSSINGS (TLB HIT):         0 
cpu0_L1D PAGE CROSSINGS (TLB MISS):         0 
cpu0_L1D AVERAGE MISS LATENCY: 51.4288 cycles
cpu0_L2C TOTAL       ACCESS:    7435345  HIT:    3661114  MISS:    3774231  iACCESS:    3389309  iHIT:    2001449  iMISS:    1387860  dACCESS:    3766468  dHIT:    1617956  dMISS:    2148512  itACCESS:      84417  itHIT:      16390  itMISS:      68027  dtACCESS:     195151  dtHIT:      25319  dtMISS:     169832
cpu0_L2C LOAD         ACCESS:    1769413  HIT:     894788  MISS:     874625  iACCESS:     768842  iHIT:     479943  iMISS:     288899  dACCESS:    1000571  dHIT:     414845  dMISS:     585726  itACCESS:          0  itHIT:          0  itMISS:          0  dtACCESS:          0  dtHIT:          0  dtMISS:          0
cpu0_L2C RFO          ACCESS:     162366  HIT:      59898  MISS:     102468  iACCESS:          0  iHIT:          0  iMISS:          0  dACCESS:     162366  dHIT:      59898  dMISS:     102468  itACCESS:          0  itHIT:          0  itMISS:          0  dtACCESS:          0  dtHIT:          0  dtMISS:          0
cpu0_L2C PREFETCH     ACCESS:    4939797  HIT:    2382007  MISS:    2557790  iACCESS:    2620467  iHIT:    1521506  iMISS:    1098961  dACCESS:    2319330  dHIT:     860501  dMISS:    1458829  itACCESS:          0  itHIT:          0  itMISS:          0  dtACCESS:          0  dtHIT:          0  dtMISS:          0
cpu0_L2C WRITE        ACCESS:     284201  HIT:     282712  MISS:       1489  iACCESS:          0  iHIT:          0  iMISS:          0  dACCESS:     284201  dHIT:     282712  dMISS:       1489  itACCESS:          0  itHIT:          0  itMISS:          0  dtACCESS:          0  dtHIT:          0  dtMISS:          0
cpu0_L2C TRANSLATION  ACCESS:     279568  HIT:      41709  MISS:     237859  iACCESS:          0  iHIT:          0  iMISS:          0  dACCESS:          0  dHIT:          0  dMISS:          0  itACCESS:      84417  itHIT:      16390  itMISS:      68027  dtACCESS:     195151  dtHIT:      25319  dtMISS:     169832
cpu0_L2C PREFETCH  REQUESTED:    1529801  ISSUED:    1529764  CROSSED:          0  USEFUL:     381792  USELESS:     304664
cpu0_L2C AVERAGE iMISS LATENCY: 33.8562 cycles
cpu0_L2C AVERAGE dMISS LATENCY: 61.1625 cycles
cpu0_L2C AVERAGE itMISS LATENCY: 2.78395 cycles
cpu0_L2C AVERAGE dtMISS LATENCY: 7.53008 cycles
cpu0_L2C PAGE CROSSINGS (TLB HIT):         0 
cpu0_L2C PAGE CROSSINGS (TLB MISS):         0 
cpu0_L2C AVERAGE MISS LATENCY: 105.333 cycles
LLC TOTAL       ACCESS:    3744051  HIT:    1706232  MISS:    2037819  iACCESS:    1306078  iHIT:     619485  iMISS:     686593  dACCESS:    2200114  dHIT:    1034699  dMISS:    1165415  itACCESS:      68027  itHIT:      15294  itMISS:      52733  dtACCESS:     169832  dtHIT:      36754  dtMISS:     133078
LLC LOAD         ACCESS:     868359  HIT:     415690  MISS:     452669  iACCESS:     287366  iHIT:     141579  iMISS:     145787  dACCESS:     580993  dHIT:     274111  dMISS:     306882  itACCESS:          0  itHIT:          0  itMISS:          0  dtACCESS:          0  dtHIT:          0  dtMISS:          0
LLC RFO          ACCESS:     102467  HIT:      38992  MISS:      63475  iACCESS:          0  iHIT:          0  iMISS:          0  dACCESS:     102467  dHIT:      38992  dMISS:      63475  itACCESS:          0  itHIT:          0  itMISS:          0  dtACCESS:          0  dtHIT:          0  dtMISS:          0
LLC PREFETCH     ACCESS:    2373100  HIT:    1046111  MISS:    1326989  iACCESS:    1018712  iHIT:     477906  iMISS:     540806  dACCESS:    1354388  dHIT:     568205  dMISS:     786183  itACCESS:          0  itHIT:          0  itMISS:          0  dtACCESS:          0  dtHIT:          0  dtMISS:          0
LLC WRITE        ACCESS:     162266  HIT:     153391  MISS:       8875  iACCESS:          0  iHIT:          0  iMISS:          0  dACCESS:     162266  dHIT:     153391  dMISS:       8875  itACCESS:          0  itHIT:          0  itMISS:          0  dtACCESS:          0  dtHIT:          0  dtMISS:          0
LLC TRANSLATION  ACCESS:     237859  HIT:      52048  MISS:     185811  iACCESS:          0  iHIT:          0  iMISS:          0  dACCESS:          0  dHIT:          0  dMISS:          0  itACCESS:      68027  itHIT:      15294  itMISS:      52733  dtACCESS:     169832  dtHIT:      36754  dtMISS:     133078
LLC PREFETCH  REQUESTED:          0  ISSUED:          0  CROSSED:          0  USEFUL:          0  USELESS:          0
LLC AVERAGE iMISS LATENCY: 50.1664 cycles
LLC AVERAGE dMISS LATENCY: 94.669 cycles
LLC AVERAGE itMISS LATENCY: 4.49816 cycles
LLC AVERAGE dtMISS LATENCY: 12.306 cycles
LLC PAGE CROSSINGS (TLB HIT):         0 
LLC PAGE CROSSINGS (TLB MISS):         0 
LLC AVERAGE MISS LATENCY: 161.64 cycles

PageTableWalker TOTAL       ACCESS:     125562  
PageTableWalker AVERAGE LATENCY: 5.05818 cycles
PageTableWalker TOTAL LATENCY: 635114 cycles

DRAM Statistics
Channel 0
 RQ ROW_BUFFER_HIT:     543589
  ROW_BUFFER_MISS:    1467799
 AVG DBUS CONGESTED CYCLE:    3.64081
 WQ ROW_BUFFER_HIT:      42064
  ROW_BUFFER_MISS:      29639  FULL:          0

