last_page:0x200000000000000
VMEM_RES_CAP:0x100000
PAGE_SIZE:4096
LOG2_PAGE_SIZE:12
LOG2_PAGE_TABLE_SIZE:9
page_table_levels:5
WARNING: physical memory size is smaller than virtual memory size
FDiP enabled with aggresivity 16

*** ChampSim Multicore Out-of-Order Simulator ***

Warmup Instructions: 50000000
Simulation Instructions: 100000000
Number of CPUs: 1
Small page size: 4096
Large page size: 2097152

CPU 0 Bimodal branch predictor
Basic BTB sets: 1024 ways: 8 indirect buffer size: 4096 RAS size: 64
Instruction page size distrubution: 0
Loading instruction page size distribution from /home/bsc/bsc018186/scratch/itp_asplos25_AE/dump/srv527_ap.pdst
Data page size distrubution: 0
Loading data page size distribution from /home/bsc/bsc018186/scratch/itp_asplos25_AE/dump/srv527_ap.pdst
cpu0_L2C IP-based stride prefetcher
cpu0_L2C is using PTP replacement policy:
	TLB_STRESS_THRESHOLD:0
	PTE_EVICTION_RATIO:0
cpu0_L1D next line prefetcher
cpu0_L1I next line prefetcher
Off-chip DRAM Size: 4 GiB Channels: 1 Width: 64-bit Data Rate: 3200 MT/s
Heartbeat CPU 0 instructions: 10000001 cycles: 2500238 heartbeat IPC: 3.99962 cumulative IPC: 3.99962 (Simulation time: 0 hr 0 min 37 sec) 
Heartbeat CPU 0 instructions: 20000000 cycles: 5000277 heartbeat IPC: 3.99994 cumulative IPC: 3.99978 (Simulation time: 0 hr 1 min 15 sec) 
Heartbeat CPU 0 instructions: 30000001 cycles: 7500936 heartbeat IPC: 3.99895 cumulative IPC: 3.99951 (Simulation time: 0 hr 1 min 55 sec) 
Heartbeat CPU 0 instructions: 40000000 cycles: 10001140 heartbeat IPC: 3.99968 cumulative IPC: 3.99955 (Simulation time: 0 hr 2 min 33 sec) 
Heartbeat CPU 0 instructions: 50000002 cycles: 12502568 heartbeat IPC: 3.99772 cumulative IPC: 3.99918 (Simulation time: 0 hr 3 min 13 sec) 
Warmup finished CPU 0 instructions: 50000002 cycles: 12502569 cumulative IPC: 3.99918 (Simulation time: 0 hr 3 min 13 sec) 

Warmup complete CPU 0 instructions: 50000002 cycles: 12502569 (Simulation time: 0 hr 3 min 13 sec) 

Heartbeat CPU 0 instructions: 60000001 cycles: 27360283 heartbeat IPC: 0.673051 cumulative IPC: 0.673051 (Simulation time: 0 hr 4 min 17 sec) 
Heartbeat CPU 0 instructions: 70000000 cycles: 43890020 heartbeat IPC: 0.604971 cumulative IPC: 0.637198 (Simulation time: 0 hr 5 min 24 sec) 
Heartbeat CPU 0 instructions: 80000001 cycles: 60966693 heartbeat IPC: 0.585595 cumulative IPC: 0.619015 (Simulation time: 0 hr 6 min 31 sec) 
Heartbeat CPU 0 instructions: 90000002 cycles: 76395102 heartbeat IPC: 0.648156 cumulative IPC: 0.626052 (Simulation time: 0 hr 7 min 36 sec) 
Heartbeat CPU 0 instructions: 100000003 cycles: 91848403 heartbeat IPC: 0.647111 cumulative IPC: 0.630153 (Simulation time: 0 hr 8 min 42 sec) 
*** Reached end of trace: /gpfs/projects/bsc18/MN4/bsc18/romol/ChampSim/traces/qualcomm_srv/srv527_ap.champsimtrace.xz
Heartbeat CPU 0 instructions: 110000000 cycles: 108672190 heartbeat IPC: 0.594397 cumulative IPC: 0.623898 (Simulation time: 0 hr 9 min 50 sec) 
Heartbeat CPU 0 instructions: 120000001 cycles: 125947588 heartbeat IPC: 0.578858 cumulative IPC: 0.617039 (Simulation time: 0 hr 10 min 58 sec) 
Heartbeat CPU 0 instructions: 130000001 cycles: 144309886 heartbeat IPC: 0.544595 cumulative IPC: 0.606947 (Simulation time: 0 hr 12 min 7 sec) 
Heartbeat CPU 0 instructions: 140000001 cycles: 160186975 heartbeat IPC: 0.629839 cumulative IPC: 0.609408 (Simulation time: 0 hr 13 min 13 sec) 
Heartbeat CPU 0 instructions: 150000003 cycles: 177403228 heartbeat IPC: 0.580847 cumulative IPC: 0.606426 (Simulation time: 0 hr 14 min 21 sec) 
Simulation finished CPU 0 instructions: 100000001 cycles: 164900660 cumulative IPC: 0.606426 (Simulation time: 0 hr 14 min 21 sec) 

Simulation complete CPU 0 instructions: 100000001 cycles: 164900660 (Simulation time: 0 hr 14 min 21 sec) 


ChampSim completed all CPUs

Saving instructions large page distribution to /home/bsc/bsc018186/scratch/itp_asplos25_AE/dump/srv527_ap.pdst...
Saving data large page distribution to /home/bsc/bsc018186/scratch/itp_asplos25_AE/dump/srv527_ap.pdst...
=== Simulation ===
CPU 0 runs /gpfs/projects/bsc18/MN4/bsc18/romol/ChampSim/traces/qualcomm_srv/srv527_ap.champsimtrace.xz

Region of Interest Statistics

CPU 0 cumulative IPC: 0.606426 instructions: 100000001 cycles: 164900660
CPU 0 Branch Prediction Accuracy: 82.8884% MPKI: 28.8941 Average ROB Occupancy at Mispredict: 11.8637
Branch type MPKI
BRANCH_DIRECT_JUMP: 1.01523
BRANCH_INDIRECT: 14.7112
BRANCH_CONDITIONAL: 9.65227
BRANCH_DIRECT_CALL: 1.80009
BRANCH_INDIRECT_CALL: 0.45526
BRANCH_RETURN: 1.25996

Instructions large pages: 0
Instructions small pages: 1134
Large page distribution for instructions: 0%

Data large pages: 0
Data small pages: 9370
Large page distribution for data: 0%

cpu0_L1I TOTAL       ACCESS:   32146782  HIT:   24857391  MISS:    7289391  iACCESS:   32146782  iHIT:   24857391  iMISS:    7289391  dACCESS:          0  dHIT:          0  dMISS:          0  itACCESS:          0  itHIT:          0  itMISS:          0  dtACCESS:          0  dtHIT:          0  dtMISS:          0
cpu0_L1I LOAD         ACCESS:    9192103  HIT:    7154841  MISS:    2037262  iACCESS:    9192103  iHIT:    7154841  iMISS:    2037262  dACCESS:          0  dHIT:          0  dMISS:          0  itACCESS:          0  itHIT:          0  itMISS:          0  dtACCESS:          0  dtHIT:          0  dtMISS:          0
cpu0_L1I RFO          ACCESS:          0  HIT:          0  MISS:          0  iACCESS:          0  iHIT:          0  iMISS:          0  dACCESS:          0  dHIT:          0  dMISS:          0  itACCESS:          0  itHIT:          0  itMISS:          0  dtACCESS:          0  dtHIT:          0  dtMISS:          0
cpu0_L1I PREFETCH     ACCESS:   22954679  HIT:   17702550  MISS:    5252129  iACCESS:   22954679  iHIT:   17702550  iMISS:    5252129  dACCESS:          0  dHIT:          0  dMISS:          0  itACCESS:          0  itHIT:          0  itMISS:          0  dtACCESS:          0  dtHIT:          0  dtMISS:          0
cpu0_L1I WRITE        ACCESS:          0  HIT:          0  MISS:          0  iACCESS:          0  iHIT:          0  iMISS:          0  dACCESS:          0  dHIT:          0  dMISS:          0  itACCESS:          0  itHIT:          0  itMISS:          0  dtACCESS:          0  dtHIT:          0  dtMISS:          0
cpu0_L1I TRANSLATION  ACCESS:          0  HIT:          0  MISS:          0  iACCESS:          0  iHIT:          0  iMISS:          0  dACCESS:          0  dHIT:          0  dMISS:          0  itACCESS:          0  itHIT:          0  itMISS:          0  dtACCESS:          0  dtHIT:          0  dtMISS:          0
cpu0_L1I PREFETCH  REQUESTED:   25109975  ISSUED:   25109787  CROSSED:          0  USEFUL:    1729727  USELESS:     562880
cpu0_L1I AVERAGE iMISS LATENCY: 17.1556 cycles
cpu0_L1I AVERAGE dMISS LATENCY: 0 cycles
cpu0_L1I AVERAGE itMISS LATENCY: 0 cycles
cpu0_L1I AVERAGE dtMISS LATENCY: 0 cycles
cpu0_L1I PAGE CROSSINGS (TLB HIT):         0 
cpu0_L1I PAGE CROSSINGS (TLB MISS):         0 
cpu0_L1I AVERAGE MISS LATENCY: 17.1556 cycles
cpu0_ITLB TOTAL       ACCESS:   26988212  HIT:   25231813  MISS:    1756399  iACCESS:   26988212  iHIT:   25231813  iMISS:    1756399  dACCESS:          0  dHIT:          0  dMISS:          0  itACCESS:          0  itHIT:          0  itMISS:          0  dtACCESS:          0  dtHIT:          0  dtMISS:          0
cpu0_ITLB LOAD         ACCESS:   26988212  HIT:   25231813  MISS:    1756399  iACCESS:   26988212  iHIT:   25231813  iMISS:    1756399  dACCESS:          0  dHIT:          0  dMISS:          0  itACCESS:          0  itHIT:          0  itMISS:          0  dtACCESS:          0  dtHIT:          0  dtMISS:          0
cpu0_ITLB RFO          ACCESS:          0  HIT:          0  MISS:          0  iACCESS:          0  iHIT:          0  iMISS:          0  dACCESS:          0  dHIT:          0  dMISS:          0  itACCESS:          0  itHIT:          0  itMISS:          0  dtACCESS:          0  dtHIT:          0  dtMISS:          0
cpu0_ITLB PREFETCH     ACCESS:          0  HIT:          0  MISS:          0  iACCESS:          0  iHIT:          0  iMISS:          0  dACCESS:          0  dHIT:          0  dMISS:          0  itACCESS:          0  itHIT:          0  itMISS:          0  dtACCESS:          0  dtHIT:          0  dtMISS:          0
cpu0_ITLB WRITE        ACCESS:          0  HIT:          0  MISS:          0  iACCESS:          0  iHIT:          0  iMISS:          0  dACCESS:          0  dHIT:          0  dMISS:          0  itACCESS:          0  itHIT:          0  itMISS:          0  dtACCESS:          0  dtHIT:          0  dtMISS:          0
cpu0_ITLB TRANSLATION  ACCESS:          0  HIT:          0  MISS:          0  iACCESS:          0  iHIT:          0  iMISS:          0  dACCESS:          0  dHIT:          0  dMISS:          0  itACCESS:          0  itHIT:          0  itMISS:          0  dtACCESS:          0  dtHIT:          0  dtMISS:          0
cpu0_ITLB PREFETCH  REQUESTED:          0  ISSUED:          0  CROSSED:          0  USEFUL:     285195  USELESS:      53395
cpu0_ITLB AVERAGE iMISS LATENCY: 5.3747 cycles
cpu0_ITLB AVERAGE dMISS LATENCY: 0 cycles
cpu0_ITLB AVERAGE itMISS LATENCY: 0 cycles
cpu0_ITLB AVERAGE dtMISS LATENCY: 0 cycles
cpu0_ITLB PAGE CROSSINGS (TLB HIT):         0 
cpu0_ITLB PAGE CROSSINGS (TLB MISS):         0 
cpu0_ITLB AVERAGE MISS LATENCY: 5.3747 cycles
cpu0_DTLB TOTAL       ACCESS:   28007708  HIT:   26212587  MISS:    1795121  iACCESS:          0  iHIT:          0  iMISS:          0  dACCESS:   28007708  dHIT:   26212587  dMISS:    1795121  itACCESS:          0  itHIT:          0  itMISS:          0  dtACCESS:          0  dtHIT:          0  dtMISS:          0
cpu0_DTLB LOAD         ACCESS:   28007708  HIT:   26212587  MISS:    1795121  iACCESS:          0  iHIT:          0  iMISS:          0  dACCESS:   28007708  dHIT:   26212587  dMISS:    1795121  itACCESS:          0  itHIT:          0  itMISS:          0  dtACCESS:          0  dtHIT:          0  dtMISS:          0
cpu0_DTLB RFO          ACCESS:          0  HIT:          0  MISS:          0  iACCESS:          0  iHIT:          0  iMISS:          0  dACCESS:          0  dHIT:          0  dMISS:          0  itACCESS:          0  itHIT:          0  itMISS:          0  dtACCESS:          0  dtHIT:          0  dtMISS:          0
cpu0_DTLB PREFETCH     ACCESS:          0  HIT:          0  MISS:          0  iACCESS:          0  iHIT:          0  iMISS:          0  dACCESS:          0  dHIT:          0  dMISS:          0  itACCESS:          0  itHIT:          0  itMISS:          0  dtACCESS:          0  dtHIT:          0  dtMISS:          0
cpu0_DTLB WRITE        ACCESS:          0  HIT:          0  MISS:          0  iACCESS:          0  iHIT:          0  iMISS:          0  dACCESS:          0  dHIT:          0  dMISS:          0  itACCESS:          0  itHIT:          0  itMISS:          0  dtACCESS:          0  dtHIT:          0  dtMISS:          0
cpu0_DTLB TRANSLATION  ACCESS:          0  HIT:          0  MISS:          0  iACCESS:          0  iHIT:          0  iMISS:          0  dACCESS:          0  dHIT:          0  dMISS:          0  itACCESS:          0  itHIT:          0  itMISS:          0  dtACCESS:          0  dtHIT:          0  dtMISS:          0
cpu0_DTLB PREFETCH  REQUESTED:          0  ISSUED:          0  CROSSED:          0  USEFUL:          0  USELESS:          0
cpu0_DTLB AVERAGE iMISS LATENCY: 0 cycles
cpu0_DTLB AVERAGE dMISS LATENCY: 15.4981 cycles
cpu0_DTLB AVERAGE itMISS LATENCY: 0 cycles
cpu0_DTLB AVERAGE dtMISS LATENCY: 0 cycles
cpu0_DTLB PAGE CROSSINGS (TLB HIT):         0 
cpu0_DTLB PAGE CROSSINGS (TLB MISS):         0 
cpu0_DTLB AVERAGE MISS LATENCY: 15.4981 cycles
cpu0_STLB TOTAL       ACCESS:    1405522  HIT:    1219400  MISS:     186122  iACCESS:     338601  iHIT:     272748  iMISS:      65853  dACCESS:    1066921  dHIT:     946652  dMISS:     120269  itACCESS:          0  itHIT:          0  itMISS:          0  dtACCESS:          0  dtHIT:          0  dtMISS:          0
cpu0_STLB LOAD         ACCESS:    1405522  HIT:    1219400  MISS:     186122  iACCESS:     338601  iHIT:     272748  iMISS:      65853  dACCESS:    1066921  dHIT:     946652  dMISS:     120269  itACCESS:          0  itHIT:          0  itMISS:          0  dtACCESS:          0  dtHIT:          0  dtMISS:          0
cpu0_STLB RFO          ACCESS:          0  HIT:          0  MISS:          0  iACCESS:          0  iHIT:          0  iMISS:          0  dACCESS:          0  dHIT:          0  dMISS:          0  itACCESS:          0  itHIT:          0  itMISS:          0  dtACCESS:          0  dtHIT:          0  dtMISS:          0
cpu0_STLB PREFETCH     ACCESS:          0  HIT:          0  MISS:          0  iACCESS:          0  iHIT:          0  iMISS:          0  dACCESS:          0  dHIT:          0  dMISS:          0  itACCESS:          0  itHIT:          0  itMISS:          0  dtACCESS:          0  dtHIT:          0  dtMISS:          0
cpu0_STLB WRITE        ACCESS:          0  HIT:          0  MISS:          0  iACCESS:          0  iHIT:          0  iMISS:          0  dACCESS:          0  dHIT:          0  dMISS:          0  itACCESS:          0  itHIT:          0  itMISS:          0  dtACCESS:          0  dtHIT:          0  dtMISS:          0
cpu0_STLB TRANSLATION  ACCESS:          0  HIT:          0  MISS:          0  iACCESS:          0  iHIT:          0  iMISS:          0  dACCESS:          0  dHIT:          0  dMISS:          0  itACCESS:          0  itHIT:          0  itMISS:          0  dtACCESS:          0  dtHIT:          0  dtMISS:          0
cpu0_STLB PREFETCH  REQUESTED:          0  ISSUED:          0  CROSSED:          0  USEFUL:          0  USELESS:          0
cpu0_STLB AVERAGE iMISS LATENCY: 36.2603 cycles
cpu0_STLB AVERAGE dMISS LATENCY: 103.656 cycles
cpu0_STLB AVERAGE itMISS LATENCY: 0 cycles
cpu0_STLB AVERAGE dtMISS LATENCY: 0 cycles
cpu0_STLB PAGE CROSSINGS (TLB HIT):         0 
cpu0_STLB PAGE CROSSINGS (TLB MISS):         0 
cpu0_STLB AVERAGE MISS LATENCY: 139.916 cycles
cpu0_L1D TOTAL       ACCESS:   42327610  HIT:   38507949  MISS:    3819661  iACCESS:          0  iHIT:          0  iMISS:          0  dACCESS:   42086723  dHIT:   38486173  dMISS:    3600550  itACCESS:      71300  itHIT:      10483  itMISS:      60817  dtACCESS:     169587  dtHIT:      11293  dtMISS:     158294
cpu0_L1D LOAD         ACCESS:   19736026  HIT:   18172492  MISS:    1563534  iACCESS:          0  iHIT:          0  iMISS:          0  dACCESS:   19736026  dHIT:   18172492  dMISS:    1563534  itACCESS:          0  itHIT:          0  itMISS:          0  dtACCESS:          0  dtHIT:          0  dtMISS:          0
cpu0_L1D RFO          ACCESS:          0  HIT:          0  MISS:          0  iACCESS:          0  iHIT:          0  iMISS:          0  dACCESS:          0  dHIT:          0  dMISS:          0  itACCESS:          0  itHIT:          0  itMISS:          0  dtACCESS:          0  dtHIT:          0  dtMISS:          0
cpu0_L1D PREFETCH     ACCESS:   12498863  HIT:   11066135  MISS:    1432728  iACCESS:          0  iHIT:          0  iMISS:          0  dACCESS:   12498863  dHIT:   11066135  dMISS:    1432728  itACCESS:          0  itHIT:          0  itMISS:          0  dtACCESS:          0  dtHIT:          0  dtMISS:          0
cpu0_L1D WRITE        ACCESS:    9851834  HIT:    9247546  MISS:     604288  iACCESS:          0  iHIT:          0  iMISS:          0  dACCESS:    9851834  dHIT:    9247546  dMISS:     604288  itACCESS:          0  itHIT:          0  itMISS:          0  dtACCESS:          0  dtHIT:          0  dtMISS:          0
cpu0_L1D TRANSLATION  ACCESS:     240887  HIT:      21776  MISS:     219111  iACCESS:          0  iHIT:          0  iMISS:          0  dACCESS:          0  dHIT:          0  dMISS:          0  itACCESS:      71300  itHIT:      10483  itMISS:      60817  dtACCESS:     169587  dtHIT:      11293  dtMISS:     158294
cpu0_L1D PREFETCH  REQUESTED:   19736026  ISSUED:   17926023  CROSSED:          0  USEFUL:     299655  USELESS:     619351
cpu0_L1D AVERAGE iMISS LATENCY: 0 cycles
cpu0_L1D AVERAGE dMISS LATENCY: 38.3895 cycles
cpu0_L1D AVERAGE itMISS LATENCY: 1.61585 cycles
cpu0_L1D AVERAGE dtMISS LATENCY: 4.4439 cycles
cpu0_L1D PAGE CROSSINGS (TLB HIT):         0 
cpu0_L1D PAGE CROSSINGS (TLB MISS):         0 
cpu0_L1D AVERAGE MISS LATENCY: 44.4492 cycles
cpu0_L2C TOTAL       ACCESS:    6419508  HIT:    2430284  MISS:    3989224  iACCESS:    2969671  iHIT:    1352059  iMISS:    1617612  dACCESS:    3236722  dHIT:     997633  dMISS:    2239089  itACCESS:      60561  itHIT:      23375  itMISS:      37186  dtACCESS:     152554  dtHIT:      57217  dtMISS:      95337
cpu0_L2C LOAD         ACCESS:    1553086  HIT:     541503  MISS:    1011583  iACCESS:     710627  iHIT:     316870  iMISS:     393757  dACCESS:     842459  dHIT:     224633  dMISS:     617826  itACCESS:          0  itHIT:          0  itMISS:          0  dtACCESS:          0  dtHIT:          0  dtMISS:          0
cpu0_L2C RFO          ACCESS:     140669  HIT:      35693  MISS:     104976  iACCESS:          0  iHIT:          0  iMISS:          0  dACCESS:     140669  dHIT:      35693  dMISS:     104976  itACCESS:          0  itHIT:          0  itMISS:          0  dtACCESS:          0  dtHIT:          0  dtMISS:          0
cpu0_L2C PREFETCH     ACCESS:    4244600  HIT:    1603861  MISS:    2640739  iACCESS:    2259044  iHIT:    1035189  iMISS:    1223855  dACCESS:    1985556  dHIT:     568672  dMISS:    1416884  itACCESS:          0  itHIT:          0  itMISS:          0  dtACCESS:          0  dtHIT:          0  dtMISS:          0
cpu0_L2C WRITE        ACCESS:     268038  HIT:     168635  MISS:      99403  iACCESS:          0  iHIT:          0  iMISS:          0  dACCESS:     268038  dHIT:     168635  dMISS:      99403  itACCESS:          0  itHIT:          0  itMISS:          0  dtACCESS:          0  dtHIT:          0  dtMISS:          0
cpu0_L2C TRANSLATION  ACCESS:     213115  HIT:      80592  MISS:     132523  iACCESS:          0  iHIT:          0  iMISS:          0  dACCESS:          0  dHIT:          0  dMISS:          0  itACCESS:      60561  itHIT:      23375  itMISS:      37186  dtACCESS:     152554  dtHIT:      57217  dtMISS:      95337
cpu0_L2C PREFETCH  REQUESTED:    1298034  ISSUED:    1298034  CROSSED:          0  USEFUL:     339579  USELESS:     307519
cpu0_L2C AVERAGE iMISS LATENCY: 24.5966 cycles
cpu0_L2C AVERAGE dMISS LATENCY: 46.3272 cycles
cpu0_L2C AVERAGE itMISS LATENCY: 1.40077 cycles
cpu0_L2C AVERAGE dtMISS LATENCY: 3.88466 cycles
cpu0_L2C PAGE CROSSINGS (TLB HIT):         0 
cpu0_L2C PAGE CROSSINGS (TLB MISS):         0 
cpu0_L2C AVERAGE MISS LATENCY: 76.2092 cycles
LLC TOTAL       ACCESS:    3932145  HIT:    2504423  MISS:    1427722  iACCESS:    1547906  iHIT:    1087488  iMISS:     460418  dACCESS:    2251716  dHIT:    1386204  dMISS:     865512  itACCESS:      37186  itHIT:       9180  itMISS:      28006  dtACCESS:      95337  dtHIT:      21551  dtMISS:      73786
LLC LOAD         ACCESS:    1008328  HIT:     690853  MISS:     317475  iACCESS:     392432  iHIT:     293211  iMISS:      99221  dACCESS:     615896  dHIT:     397642  dMISS:     218254  itACCESS:          0  itHIT:          0  itMISS:          0  dtACCESS:          0  dtHIT:          0  dtMISS:          0
LLC RFO          ACCESS:     104973  HIT:      56813  MISS:      48160  iACCESS:          0  iHIT:          0  iMISS:          0  dACCESS:     104973  dHIT:      56813  dMISS:      48160  itACCESS:          0  itHIT:          0  itMISS:          0  dtACCESS:          0  dtHIT:          0  dtMISS:          0
LLC PREFETCH     ACCESS:    2496361  HIT:    1540143  MISS:     956218  iACCESS:    1155474  iHIT:     794277  iMISS:     361197  dACCESS:    1340887  dHIT:     745866  dMISS:     595021  itACCESS:          0  itHIT:          0  itMISS:          0  dtACCESS:          0  dtHIT:          0  dtMISS:          0
LLC WRITE        ACCESS:     189960  HIT:     185883  MISS:       4077  iACCESS:          0  iHIT:          0  iMISS:          0  dACCESS:     189960  dHIT:     185883  dMISS:       4077  itACCESS:          0  itHIT:          0  itMISS:          0  dtACCESS:          0  dtHIT:          0  dtMISS:          0
LLC TRANSLATION  ACCESS:     132523  HIT:      30731  MISS:     101792  iACCESS:          0  iHIT:          0  iMISS:          0  dACCESS:          0  dHIT:          0  dMISS:          0  itACCESS:      37186  itHIT:       9180  itMISS:      28006  dtACCESS:      95337  dtHIT:      21551  dtMISS:      73786
LLC PREFETCH  REQUESTED:          0  ISSUED:          0  CROSSED:          0  USEFUL:          0  USELESS:          0
LLC AVERAGE iMISS LATENCY: 47.6669 cycles
LLC AVERAGE dMISS LATENCY: 101.884 cycles
LLC AVERAGE itMISS LATENCY: 3.40084 cycles
LLC AVERAGE dtMISS LATENCY: 9.5399 cycles
LLC PAGE CROSSINGS (TLB HIT):         0 
LLC PAGE CROSSINGS (TLB MISS):         0 
LLC AVERAGE MISS LATENCY: 162.492 cycles

PageTableWalker TOTAL       ACCESS:      96229  
PageTableWalker AVERAGE LATENCY: 3.95191 cycles
PageTableWalker TOTAL LATENCY: 380288 cycles

DRAM Statistics
Channel 0
 RQ ROW_BUFFER_HIT:     395209
  ROW_BUFFER_MISS:    1026520
 AVG DBUS CONGESTED CYCLE:    3.65121
 WQ ROW_BUFFER_HIT:      34263
  ROW_BUFFER_MISS:      34076  FULL:          0

