last_page:0x200000000000000
VMEM_RES_CAP:0x100000
PAGE_SIZE:4096
LOG2_PAGE_SIZE:12
LOG2_PAGE_TABLE_SIZE:9
page_table_levels:5
WARNING: physical memory size is smaller than virtual memory size
FDiP enabled with aggresivity 16

*** ChampSim Multicore Out-of-Order Simulator ***

Warmup Instructions: 50000000
Simulation Instructions: 100000000
Number of CPUs: 1
Small page size: 4096
Large page size: 2097152

CPU 0 Bimodal branch predictor
Basic BTB sets: 1024 ways: 8 indirect buffer size: 4096 RAS size: 64
Instruction page size distrubution: 0
Loading instruction page size distribution from /home/bsc/bsc018186/scratch/itp_asplos25_AE/dump/srv56_ap.pdst
Data page size distrubution: 0
Loading data page size distribution from /home/bsc/bsc018186/scratch/itp_asplos25_AE/dump/srv56_ap.pdst
cpu0_L2C IP-based stride prefetcher
cpu0_L1D next line prefetcher
cpu0_STLB using iTP with max lru@8
cpu0_STLB using iTP with instr@0 and data@2
Init sat counter with 3 bits (max:50).
cpu0_L1I next line prefetcher
Off-chip DRAM Size: 4 GiB Channels: 1 Width: 64-bit Data Rate: 3200 MT/s
Heartbeat CPU 0 instructions: 10000003 cycles: 2500266 heartbeat IPC: 3.99958 cumulative IPC: 3.99958 (Simulation time: 0 hr 0 min 38 sec) 
Heartbeat CPU 0 instructions: 20000001 cycles: 5000274 heartbeat IPC: 3.99999 cumulative IPC: 3.99979 (Simulation time: 0 hr 1 min 17 sec) 
Heartbeat CPU 0 instructions: 30000002 cycles: 7500293 heartbeat IPC: 3.99998 cumulative IPC: 3.99985 (Simulation time: 0 hr 1 min 56 sec) 
Heartbeat CPU 0 instructions: 40000003 cycles: 10000449 heartbeat IPC: 3.99976 cumulative IPC: 3.99983 (Simulation time: 0 hr 2 min 36 sec) 
Heartbeat CPU 0 instructions: 50000001 cycles: 12500594 heartbeat IPC: 3.99977 cumulative IPC: 3.99982 (Simulation time: 0 hr 3 min 16 sec) 
Warmup finished CPU 0 instructions: 50000001 cycles: 12500595 cumulative IPC: 3.99981 (Simulation time: 0 hr 3 min 16 sec) 

Warmup complete CPU 0 instructions: 50000001 cycles: 12500595 (Simulation time: 0 hr 3 min 16 sec) 

Heartbeat CPU 0 instructions: 60000000 cycles: 27771836 heartbeat IPC: 0.654826 cumulative IPC: 0.654826 (Simulation time: 0 hr 4 min 20 sec) 
Heartbeat CPU 0 instructions: 70000000 cycles: 42802537 heartbeat IPC: 0.665305 cumulative IPC: 0.660024 (Simulation time: 0 hr 5 min 24 sec) 
Heartbeat CPU 0 instructions: 80000004 cycles: 58267953 heartbeat IPC: 0.646605 cumulative IPC: 0.65549 (Simulation time: 0 hr 6 min 28 sec) 
Heartbeat CPU 0 instructions: 90000000 cycles: 73537295 heartbeat IPC: 0.654907 cumulative IPC: 0.655344 (Simulation time: 0 hr 7 min 33 sec) 
Heartbeat CPU 0 instructions: 100000001 cycles: 88084093 heartbeat IPC: 0.687437 cumulative IPC: 0.661521 (Simulation time: 0 hr 8 min 36 sec) 
*** Reached end of trace: /gpfs/projects/bsc18/MN4/bsc18/romol/ChampSim/traces/qualcomm_srv/srv56_ap.champsimtrace.xz
Heartbeat CPU 0 instructions: 110000001 cycles: 103428305 heartbeat IPC: 0.651712 cumulative IPC: 0.659865 (Simulation time: 0 hr 9 min 39 sec) 
Heartbeat CPU 0 instructions: 120000000 cycles: 118220067 heartbeat IPC: 0.676052 cumulative IPC: 0.66213 (Simulation time: 0 hr 10 min 41 sec) 
Heartbeat CPU 0 instructions: 130000000 cycles: 132901697 heartbeat IPC: 0.681124 cumulative IPC: 0.664446 (Simulation time: 0 hr 11 min 41 sec) 
Heartbeat CPU 0 instructions: 140000003 cycles: 149315119 heartbeat IPC: 0.609258 cumulative IPC: 0.657825 (Simulation time: 0 hr 12 min 43 sec) 
Heartbeat CPU 0 instructions: 150000000 cycles: 164316645 heartbeat IPC: 0.666599 cumulative IPC: 0.658692 (Simulation time: 0 hr 13 min 42 sec) 
Simulation finished CPU 0 instructions: 100000001 cycles: 151816052 cumulative IPC: 0.658692 (Simulation time: 0 hr 13 min 42 sec) 

Simulation complete CPU 0 instructions: 100000001 cycles: 151816052 (Simulation time: 0 hr 13 min 42 sec) 


ChampSim completed all CPUs

Saving instructions large page distribution to /home/bsc/bsc018186/scratch/itp_asplos25_AE/dump/srv56_ap.pdst...
Saving data large page distribution to /home/bsc/bsc018186/scratch/itp_asplos25_AE/dump/srv56_ap.pdst...
=== Simulation ===
CPU 0 runs /gpfs/projects/bsc18/MN4/bsc18/romol/ChampSim/traces/qualcomm_srv/srv56_ap.champsimtrace.xz

Region of Interest Statistics

CPU 0 cumulative IPC: 0.658692 instructions: 100000001 cycles: 151816052
CPU 0 Branch Prediction Accuracy: 82.5083% MPKI: 31.3359 Average ROB Occupancy at Mispredict: 13.4069
Branch type MPKI
BRANCH_DIRECT_JUMP: 1.06978
BRANCH_INDIRECT: 16.1898
BRANCH_CONDITIONAL: 10.2461
BRANCH_DIRECT_CALL: 1.92883
BRANCH_INDIRECT_CALL: 0.51639
BRANCH_RETURN: 1.38511

Instructions large pages: 0
Instructions small pages: 10539
Large page distribution for instructions: 0%

Data large pages: 0
Data small pages: 9572
Large page distribution for data: 0%

cpu0_L1I TOTAL       ACCESS:   35191143  HIT:   27388367  MISS:    7802776  iACCESS:   35191143  iHIT:   27388367  iMISS:    7802776  dACCESS:          0  dHIT:          0  dMISS:          0  itACCESS:          0  itHIT:          0  itMISS:          0  dtACCESS:          0  dtHIT:          0  dtMISS:          0
cpu0_L1I LOAD         ACCESS:   10322108  HIT:    8135825  MISS:    2186283  iACCESS:   10322108  iHIT:    8135825  iMISS:    2186283  dACCESS:          0  dHIT:          0  dMISS:          0  itACCESS:          0  itHIT:          0  itMISS:          0  dtACCESS:          0  dtHIT:          0  dtMISS:          0
cpu0_L1I RFO          ACCESS:          0  HIT:          0  MISS:          0  iACCESS:          0  iHIT:          0  iMISS:          0  dACCESS:          0  dHIT:          0  dMISS:          0  itACCESS:          0  itHIT:          0  itMISS:          0  dtACCESS:          0  dtHIT:          0  dtMISS:          0
cpu0_L1I PREFETCH     ACCESS:   24869035  HIT:   19252542  MISS:    5616493  iACCESS:   24869035  iHIT:   19252542  iMISS:    5616493  dACCESS:          0  dHIT:          0  dMISS:          0  itACCESS:          0  itHIT:          0  itMISS:          0  dtACCESS:          0  dtHIT:          0  dtMISS:          0
cpu0_L1I WRITE        ACCESS:          0  HIT:          0  MISS:          0  iACCESS:          0  iHIT:          0  iMISS:          0  dACCESS:          0  dHIT:          0  dMISS:          0  itACCESS:          0  itHIT:          0  itMISS:          0  dtACCESS:          0  dtHIT:          0  dtMISS:          0
cpu0_L1I TRANSLATION  ACCESS:          0  HIT:          0  MISS:          0  iACCESS:          0  iHIT:          0  iMISS:          0  dACCESS:          0  dHIT:          0  dMISS:          0  itACCESS:          0  itHIT:          0  itMISS:          0  dtACCESS:          0  dtHIT:          0  dtMISS:          0
cpu0_L1I PREFETCH  REQUESTED:   27406030  ISSUED:   27406030  CROSSED:          0  USEFUL:    1932130  USELESS:     625952
cpu0_L1I AVERAGE iMISS LATENCY: 12.6405 cycles
cpu0_L1I AVERAGE dMISS LATENCY: 0 cycles
cpu0_L1I AVERAGE itMISS LATENCY: 0 cycles
cpu0_L1I AVERAGE dtMISS LATENCY: 0 cycles
cpu0_L1I PAGE CROSSINGS (TLB HIT):         0 
cpu0_L1I PAGE CROSSINGS (TLB MISS):         0 
cpu0_L1I AVERAGE MISS LATENCY: 12.6405 cycles
cpu0_ITLB TOTAL       ACCESS:   29379722  HIT:   27452739  MISS:    1926983  iACCESS:   29379722  iHIT:   27452739  iMISS:    1926983  dACCESS:          0  dHIT:          0  dMISS:          0  itACCESS:          0  itHIT:          0  itMISS:          0  dtACCESS:          0  dtHIT:          0  dtMISS:          0
cpu0_ITLB LOAD         ACCESS:   29379722  HIT:   27452739  MISS:    1926983  iACCESS:   29379722  iHIT:   27452739  iMISS:    1926983  dACCESS:          0  dHIT:          0  dMISS:          0  itACCESS:          0  itHIT:          0  itMISS:          0  dtACCESS:          0  dtHIT:          0  dtMISS:          0
cpu0_ITLB RFO          ACCESS:          0  HIT:          0  MISS:          0  iACCESS:          0  iHIT:          0  iMISS:          0  dACCESS:          0  dHIT:          0  dMISS:          0  itACCESS:          0  itHIT:          0  itMISS:          0  dtACCESS:          0  dtHIT:          0  dtMISS:          0
cpu0_ITLB PREFETCH     ACCESS:          0  HIT:          0  MISS:          0  iACCESS:          0  iHIT:          0  iMISS:          0  dACCESS:          0  dHIT:          0  dMISS:          0  itACCESS:          0  itHIT:          0  itMISS:          0  dtACCESS:          0  dtHIT:          0  dtMISS:          0
cpu0_ITLB WRITE        ACCESS:          0  HIT:          0  MISS:          0  iACCESS:          0  iHIT:          0  iMISS:          0  dACCESS:          0  dHIT:          0  dMISS:          0  itACCESS:          0  itHIT:          0  itMISS:          0  dtACCESS:          0  dtHIT:          0  dtMISS:          0
cpu0_ITLB TRANSLATION  ACCESS:          0  HIT:          0  MISS:          0  iACCESS:          0  iHIT:          0  iMISS:          0  dACCESS:          0  dHIT:          0  dMISS:          0  itACCESS:          0  itHIT:          0  itMISS:          0  dtACCESS:          0  dtHIT:          0  dtMISS:          0
cpu0_ITLB PREFETCH  REQUESTED:          0  ISSUED:          0  CROSSED:          0  USEFUL:     317146  USELESS:      63126
cpu0_ITLB AVERAGE iMISS LATENCY: 2.19137 cycles
cpu0_ITLB AVERAGE dMISS LATENCY: 0 cycles
cpu0_ITLB AVERAGE itMISS LATENCY: 0 cycles
cpu0_ITLB AVERAGE dtMISS LATENCY: 0 cycles
cpu0_ITLB PAGE CROSSINGS (TLB HIT):         0 
cpu0_ITLB PAGE CROSSINGS (TLB MISS):         0 
cpu0_ITLB AVERAGE MISS LATENCY: 2.19137 cycles
cpu0_DTLB TOTAL       ACCESS:   27881471  HIT:   26009419  MISS:    1872052  iACCESS:          0  iHIT:          0  iMISS:          0  dACCESS:   27881471  dHIT:   26009419  dMISS:    1872052  itACCESS:          0  itHIT:          0  itMISS:          0  dtACCESS:          0  dtHIT:          0  dtMISS:          0
cpu0_DTLB LOAD         ACCESS:   27881471  HIT:   26009419  MISS:    1872052  iACCESS:          0  iHIT:          0  iMISS:          0  dACCESS:   27881471  dHIT:   26009419  dMISS:    1872052  itACCESS:          0  itHIT:          0  itMISS:          0  dtACCESS:          0  dtHIT:          0  dtMISS:          0
cpu0_DTLB RFO          ACCESS:          0  HIT:          0  MISS:          0  iACCESS:          0  iHIT:          0  iMISS:          0  dACCESS:          0  dHIT:          0  dMISS:          0  itACCESS:          0  itHIT:          0  itMISS:          0  dtACCESS:          0  dtHIT:          0  dtMISS:          0
cpu0_DTLB PREFETCH     ACCESS:          0  HIT:          0  MISS:          0  iACCESS:          0  iHIT:          0  iMISS:          0  dACCESS:          0  dHIT:          0  dMISS:          0  itACCESS:          0  itHIT:          0  itMISS:          0  dtACCESS:          0  dtHIT:          0  dtMISS:          0
cpu0_DTLB WRITE        ACCESS:          0  HIT:          0  MISS:          0  iACCESS:          0  iHIT:          0  iMISS:          0  dACCESS:          0  dHIT:          0  dMISS:          0  itACCESS:          0  itHIT:          0  itMISS:          0  dtACCESS:          0  dtHIT:          0  dtMISS:          0
cpu0_DTLB TRANSLATION  ACCESS:          0  HIT:          0  MISS:          0  iACCESS:          0  iHIT:          0  iMISS:          0  dACCESS:          0  dHIT:          0  dMISS:          0  itACCESS:          0  itHIT:          0  itMISS:          0  dtACCESS:          0  dtHIT:          0  dtMISS:          0
cpu0_DTLB PREFETCH  REQUESTED:          0  ISSUED:          0  CROSSED:          0  USEFUL:          0  USELESS:          0
cpu0_DTLB AVERAGE iMISS LATENCY: 0 cycles
cpu0_DTLB AVERAGE dMISS LATENCY: 17.7848 cycles
cpu0_DTLB AVERAGE itMISS LATENCY: 0 cycles
cpu0_DTLB AVERAGE dtMISS LATENCY: 0 cycles
cpu0_DTLB PAGE CROSSINGS (TLB HIT):         0 
cpu0_DTLB PAGE CROSSINGS (TLB MISS):         0 
cpu0_DTLB AVERAGE MISS LATENCY: 17.7848 cycles
cpu0_STLB TOTAL       ACCESS:    1526560  HIT:    1381206  MISS:     145354  iACCESS:     380278  iHIT:     371916  iMISS:       8362  dACCESS:    1146282  dHIT:    1009290  dMISS:     136992  itACCESS:          0  itHIT:          0  itMISS:          0  dtACCESS:          0  dtHIT:          0  dtMISS:          0
cpu0_STLB LOAD         ACCESS:    1526560  HIT:    1381206  MISS:     145354  iACCESS:     380278  iHIT:     371916  iMISS:       8362  dACCESS:    1146282  dHIT:    1009290  dMISS:     136992  itACCESS:          0  itHIT:          0  itMISS:          0  dtACCESS:          0  dtHIT:          0  dtMISS:          0
cpu0_STLB RFO          ACCESS:          0  HIT:          0  MISS:          0  iACCESS:          0  iHIT:          0  iMISS:          0  dACCESS:          0  dHIT:          0  dMISS:          0  itACCESS:          0  itHIT:          0  itMISS:          0  dtACCESS:          0  dtHIT:          0  dtMISS:          0
cpu0_STLB PREFETCH     ACCESS:          0  HIT:          0  MISS:          0  iACCESS:          0  iHIT:          0  iMISS:          0  dACCESS:          0  dHIT:          0  dMISS:          0  itACCESS:          0  itHIT:          0  itMISS:          0  dtACCESS:          0  dtHIT:          0  dtMISS:          0
cpu0_STLB WRITE        ACCESS:          0  HIT:          0  MISS:          0  iACCESS:          0  iHIT:          0  iMISS:          0  dACCESS:          0  dHIT:          0  dMISS:          0  itACCESS:          0  itHIT:          0  itMISS:          0  dtACCESS:          0  dtHIT:          0  dtMISS:          0
cpu0_STLB TRANSLATION  ACCESS:          0  HIT:          0  MISS:          0  iACCESS:          0  iHIT:          0  iMISS:          0  dACCESS:          0  dHIT:          0  dMISS:          0  itACCESS:          0  itHIT:          0  itMISS:          0  dtACCESS:          0  dtHIT:          0  dtMISS:          0
cpu0_STLB PREFETCH  REQUESTED:          0  ISSUED:          0  CROSSED:          0  USEFUL:          0  USELESS:          0
cpu0_STLB AVERAGE iMISS LATENCY: 8.77421 cycles
cpu0_STLB AVERAGE dMISS LATENCY: 165.853 cycles
cpu0_STLB AVERAGE itMISS LATENCY: 0 cycles
cpu0_STLB AVERAGE dtMISS LATENCY: 0 cycles
cpu0_STLB PAGE CROSSINGS (TLB HIT):         0 
cpu0_STLB PAGE CROSSINGS (TLB MISS):         0 
cpu0_STLB AVERAGE MISS LATENCY: 174.628 cycles
cpu0_L1D TOTAL       ACCESS:   41656101  HIT:   38167665  MISS:    3488436  iACCESS:          0  iHIT:          0  iMISS:          0  dACCESS:   41437143  dHIT:   38154297  dMISS:    3282846  itACCESS:       9921  itHIT:        997  itMISS:       8924  dtACCESS:     209037  dtHIT:      12371  dtMISS:     196666
cpu0_L1D LOAD         ACCESS:   19105590  HIT:   17611095  MISS:    1494495  iACCESS:          0  iHIT:          0  iMISS:          0  dACCESS:   19105590  dHIT:   17611095  dMISS:    1494495  itACCESS:          0  itHIT:          0  itMISS:          0  dtACCESS:          0  dtHIT:          0  dtMISS:          0
cpu0_L1D RFO          ACCESS:          0  HIT:          0  MISS:          0  iACCESS:          0  iHIT:          0  iMISS:          0  dACCESS:          0  dHIT:          0  dMISS:          0  itACCESS:          0  itHIT:          0  itMISS:          0  dtACCESS:          0  dtHIT:          0  dtMISS:          0
cpu0_L1D PREFETCH     ACCESS:   12138283  HIT:   10780620  MISS:    1357663  iACCESS:          0  iHIT:          0  iMISS:          0  dACCESS:   12138283  dHIT:   10780620  dMISS:    1357663  itACCESS:          0  itHIT:          0  itMISS:          0  dtACCESS:          0  dtHIT:          0  dtMISS:          0
cpu0_L1D WRITE        ACCESS:   10193270  HIT:    9762582  MISS:     430688  iACCESS:          0  iHIT:          0  iMISS:          0  dACCESS:   10193270  dHIT:    9762582  dMISS:     430688  itACCESS:          0  itHIT:          0  itMISS:          0  dtACCESS:          0  dtHIT:          0  dtMISS:          0
cpu0_L1D TRANSLATION  ACCESS:     218958  HIT:      13368  MISS:     205590  iACCESS:          0  iHIT:          0  iMISS:          0  dACCESS:          0  dHIT:          0  dMISS:          0  itACCESS:       9921  itHIT:        997  itMISS:       8924  dtACCESS:     209037  dtHIT:      12371  dtMISS:     196666
cpu0_L1D PREFETCH  REQUESTED:   19105590  ISSUED:   16896111  CROSSED:          0  USEFUL:     306757  USELESS:     700623
cpu0_L1D AVERAGE iMISS LATENCY: 0 cycles
cpu0_L1D AVERAGE dMISS LATENCY: 33.1867 cycles
cpu0_L1D AVERAGE itMISS LATENCY: 0.339454 cycles
cpu0_L1D AVERAGE dtMISS LATENCY: 6.15034 cycles
cpu0_L1D PAGE CROSSINGS (TLB HIT):         0 
cpu0_L1D PAGE CROSSINGS (TLB MISS):         0 
cpu0_L1D AVERAGE MISS LATENCY: 39.6765 cycles
cpu0_L2C TOTAL       ACCESS:    6988979  HIT:    4003709  MISS:    2985270  iACCESS:    3301165  iHIT:    2194946  iMISS:    1106219  dACCESS:    3496309  dHIT:    1776350  dMISS:    1719959  itACCESS:       8924  itHIT:       1626  itMISS:       7298  dtACCESS:     182581  dtHIT:      30787  dtMISS:     151794
cpu0_L2C LOAD         ACCESS:    1710316  HIT:    1015405  MISS:     694911  iACCESS:     783070  iHIT:     548286  iMISS:     234784  dACCESS:     927246  dHIT:     467119  dMISS:     460127  itACCESS:          0  itHIT:          0  itMISS:          0  dtACCESS:          0  dtHIT:          0  dtMISS:          0
cpu0_L2C RFO          ACCESS:     157927  HIT:      70630  MISS:      87297  iACCESS:          0  iHIT:          0  iMISS:          0  dACCESS:     157927  dHIT:      70630  dMISS:      87297  itACCESS:          0  itHIT:          0  itMISS:          0  dtACCESS:          0  dtHIT:          0  dtMISS:          0
cpu0_L2C PREFETCH     ACCESS:    4649379  HIT:    2606633  MISS:    2042746  iACCESS:    2518095  iHIT:    1646660  iMISS:     871435  dACCESS:    2131284  dHIT:     959973  dMISS:    1171311  itACCESS:          0  itHIT:          0  itMISS:          0  dtACCESS:          0  dtHIT:          0  dtMISS:          0
cpu0_L2C WRITE        ACCESS:     279852  HIT:     278628  MISS:       1224  iACCESS:          0  iHIT:          0  iMISS:          0  dACCESS:     279852  dHIT:     278628  dMISS:       1224  itACCESS:          0  itHIT:          0  itMISS:          0  dtACCESS:          0  dtHIT:          0  dtMISS:          0
cpu0_L2C TRANSLATION  ACCESS:     191505  HIT:      32413  MISS:     159092  iACCESS:          0  iHIT:          0  iMISS:          0  dACCESS:          0  dHIT:          0  dMISS:          0  itACCESS:       8924  itHIT:       1626  itMISS:       7298  dtACCESS:     182581  dtHIT:      30787  dtMISS:     151794
cpu0_L2C PREFETCH  REQUESTED:    1386390  ISSUED:    1386390  CROSSED:          0  USEFUL:     338318  USELESS:     237628
cpu0_L2C AVERAGE iMISS LATENCY: 23.0371 cycles
cpu0_L2C AVERAGE dMISS LATENCY: 45.4484 cycles
cpu0_L2C AVERAGE itMISS LATENCY: 0.367235 cycles
cpu0_L2C AVERAGE dtMISS LATENCY: 6.58108 cycles
cpu0_L2C PAGE CROSSINGS (TLB HIT):         0 
cpu0_L2C PAGE CROSSINGS (TLB MISS):         0 
cpu0_L2C AVERAGE MISS LATENCY: 75.4338 cycles
LLC TOTAL       ACCESS:    3013140  HIT:    1951047  MISS:    1062093  iACCESS:    1051930  iHIT:     724653  iMISS:     327277  dACCESS:    1802118  dHIT:    1165753  dMISS:     636365  itACCESS:       7298  itHIT:       1837  itMISS:       5461  dtACCESS:     151794  dtHIT:      58804  dtMISS:      92990
LLC LOAD         ACCESS:     693164  HIT:     455341  MISS:     237823  iACCESS:     233482  iHIT:     160683  iMISS:      72799  dACCESS:     459682  dHIT:     294658  dMISS:     165024  itACCESS:          0  itHIT:          0  itMISS:          0  dtACCESS:          0  dtHIT:          0  dtMISS:          0
LLC RFO          ACCESS:      87293  HIT:      48010  MISS:      39283  iACCESS:          0  iHIT:          0  iMISS:          0  dACCESS:      87293  dHIT:      48010  dMISS:      39283  itACCESS:          0  itHIT:          0  itMISS:          0  dtACCESS:          0  dtHIT:          0  dtMISS:          0
LLC PREFETCH     ACCESS:    1936146  HIT:    1256026  MISS:     680120  iACCESS:     818448  iHIT:     563970  iMISS:     254478  dACCESS:    1117698  dHIT:     692056  dMISS:     425642  itACCESS:          0  itHIT:          0  itMISS:          0  dtACCESS:          0  dtHIT:          0  dtMISS:          0
LLC WRITE        ACCESS:     137445  HIT:     131029  MISS:       6416  iACCESS:          0  iHIT:          0  iMISS:          0  dACCESS:     137445  dHIT:     131029  dMISS:       6416  itACCESS:          0  itHIT:          0  itMISS:          0  dtACCESS:          0  dtHIT:          0  dtMISS:          0
LLC TRANSLATION  ACCESS:     159092  HIT:      60641  MISS:      98451  iACCESS:          0  iHIT:          0  iMISS:          0  dACCESS:          0  dHIT:          0  dMISS:          0  itACCESS:       7298  itHIT:       1837  itMISS:       5461  dtACCESS:     151794  dtHIT:      58804  dtMISS:      92990
LLC PREFETCH  REQUESTED:          0  ISSUED:          0  CROSSED:          0  USEFUL:          0  USELESS:          0
LLC AVERAGE iMISS LATENCY: 45.5242 cycles
LLC AVERAGE dMISS LATENCY: 97.486 cycles
LLC AVERAGE itMISS LATENCY: 0.896978 cycles
LLC AVERAGE dtMISS LATENCY: 15.7016 cycles
LLC PAGE CROSSINGS (TLB HIT):         0 
LLC PAGE CROSSINGS (TLB MISS):         0 
LLC AVERAGE MISS LATENCY: 159.609 cycles

PageTableWalker TOTAL       ACCESS:      72171  
PageTableWalker AVERAGE LATENCY: 5.67363 cycles
PageTableWalker TOTAL LATENCY: 409471 cycles

DRAM Statistics
Channel 0
 RQ ROW_BUFFER_HIT:     277124
  ROW_BUFFER_MISS:     778443
 AVG DBUS CONGESTED CYCLE:    3.61404
 WQ ROW_BUFFER_HIT:      21518
  ROW_BUFFER_MISS:      21268  FULL:          0

