last_page:0x200000000000000
VMEM_RES_CAP:0x100000
PAGE_SIZE:4096
LOG2_PAGE_SIZE:12
LOG2_PAGE_TABLE_SIZE:9
page_table_levels:5
WARNING: physical memory size is smaller than virtual memory size
FDiP enabled with aggresivity 16

*** ChampSim Multicore Out-of-Order Simulator ***

Warmup Instructions: 50000000
Simulation Instructions: 100000000
Number of CPUs: 1
Small page size: 4096
Large page size: 2097152

CPU 0 Bimodal branch predictor
Basic BTB sets: 1024 ways: 8 indirect buffer size: 4096 RAS size: 64
Instruction page size distrubution: 0
Loading instruction page size distribution from /home/bsc/bsc018186/scratch/itp_asplos25_AE/dump/srv504_ap.pdst
Data page size distrubution: 0
Loading data page size distribution from /home/bsc/bsc018186/scratch/itp_asplos25_AE/dump/srv504_ap.pdst
cpu0_L2C IP-based stride prefetcher
cpu0_L1D next line prefetcher
cpu0_STLB using iTP with max lru@8
cpu0_STLB using iTP with instr@0 and data@2
Init sat counter with 3 bits (max:50).
cpu0_L1I next line prefetcher
Off-chip DRAM Size: 4 GiB Channels: 1 Width: 64-bit Data Rate: 3200 MT/s
Heartbeat CPU 0 instructions: 10000000 cycles: 2500367 heartbeat IPC: 3.99942 cumulative IPC: 3.99942 (Simulation time: 0 hr 0 min 38 sec) 
Heartbeat CPU 0 instructions: 20000003 cycles: 5002145 heartbeat IPC: 3.99716 cumulative IPC: 3.99829 (Simulation time: 0 hr 1 min 18 sec) 
Heartbeat CPU 0 instructions: 30000002 cycles: 7502190 heartbeat IPC: 3.99993 cumulative IPC: 3.99884 (Simulation time: 0 hr 1 min 59 sec) 
Heartbeat CPU 0 instructions: 40000003 cycles: 10002194 heartbeat IPC: 4 cumulative IPC: 3.99913 (Simulation time: 0 hr 2 min 40 sec) 
Heartbeat CPU 0 instructions: 50000002 cycles: 12502279 heartbeat IPC: 3.99987 cumulative IPC: 3.99928 (Simulation time: 0 hr 3 min 20 sec) 
Warmup finished CPU 0 instructions: 50000002 cycles: 12502280 cumulative IPC: 3.99928 (Simulation time: 0 hr 3 min 20 sec) 

Warmup complete CPU 0 instructions: 50000002 cycles: 12502280 (Simulation time: 0 hr 3 min 20 sec) 

Heartbeat CPU 0 instructions: 60000002 cycles: 32554401 heartbeat IPC: 0.498701 cumulative IPC: 0.498701 (Simulation time: 0 hr 4 min 31 sec) 
Heartbeat CPU 0 instructions: 70000000 cycles: 53038186 heartbeat IPC: 0.488191 cumulative IPC: 0.49339 (Simulation time: 0 hr 5 min 43 sec) 
Heartbeat CPU 0 instructions: 80000000 cycles: 72911912 heartbeat IPC: 0.503177 cumulative IPC: 0.49661 (Simulation time: 0 hr 6 min 53 sec) 
Heartbeat CPU 0 instructions: 90000003 cycles: 92524194 heartbeat IPC: 0.509885 cumulative IPC: 0.499864 (Simulation time: 0 hr 8 min 3 sec) 
Heartbeat CPU 0 instructions: 100000000 cycles: 112419435 heartbeat IPC: 0.502633 cumulative IPC: 0.500415 (Simulation time: 0 hr 9 min 13 sec) 
*** Reached end of trace: /gpfs/projects/bsc18/MN4/bsc18/romol/ChampSim/traces/qualcomm_srv/srv504_ap.champsimtrace.xz
Heartbeat CPU 0 instructions: 110000004 cycles: 132347876 heartbeat IPC: 0.501796 cumulative IPC: 0.500645 (Simulation time: 0 hr 10 min 23 sec) 
Heartbeat CPU 0 instructions: 120000001 cycles: 153402459 heartbeat IPC: 0.474956 cumulative IPC: 0.496806 (Simulation time: 0 hr 11 min 36 sec) 
Heartbeat CPU 0 instructions: 130000004 cycles: 172487606 heartbeat IPC: 0.523968 cumulative IPC: 0.500046 (Simulation time: 0 hr 12 min 45 sec) 
Heartbeat CPU 0 instructions: 140000002 cycles: 193232305 heartbeat IPC: 0.482051 cumulative IPC: 0.497981 (Simulation time: 0 hr 13 min 57 sec) 
Heartbeat CPU 0 instructions: 150000003 cycles: 213045265 heartbeat IPC: 0.504721 cumulative IPC: 0.498647 (Simulation time: 0 hr 15 min 7 sec) 
Simulation finished CPU 0 instructions: 100000001 cycles: 200542986 cumulative IPC: 0.498647 (Simulation time: 0 hr 15 min 7 sec) 

Simulation complete CPU 0 instructions: 100000001 cycles: 200542986 (Simulation time: 0 hr 15 min 7 sec) 


ChampSim completed all CPUs

Saving instructions large page distribution to /home/bsc/bsc018186/scratch/itp_asplos25_AE/dump/srv504_ap.pdst...
Saving data large page distribution to /home/bsc/bsc018186/scratch/itp_asplos25_AE/dump/srv504_ap.pdst...
=== Simulation ===
CPU 0 runs /gpfs/projects/bsc18/MN4/bsc18/romol/ChampSim/traces/qualcomm_srv/srv504_ap.champsimtrace.xz

Region of Interest Statistics

CPU 0 cumulative IPC: 0.498647 instructions: 100000001 cycles: 200542986
CPU 0 Branch Prediction Accuracy: 80.3433% MPKI: 35.5672 Average ROB Occupancy at Mispredict: 10.9219
Branch type MPKI
BRANCH_DIRECT_JUMP: 1.31302
BRANCH_INDIRECT: 17.8997
BRANCH_CONDITIONAL: 11.5116
BRANCH_DIRECT_CALL: 2.4806
BRANCH_INDIRECT_CALL: 0.67004
BRANCH_RETURN: 1.6923

Instructions large pages: 0
Instructions small pages: 1177
Large page distribution for instructions: 0%

Data large pages: 0
Data small pages: 5330
Large page distribution for data: 0%

cpu0_L1I TOTAL       ACCESS:   36102959  HIT:   28090073  MISS:    8012886  iACCESS:   36102959  iHIT:   28090073  iMISS:    8012886  dACCESS:          0  dHIT:          0  dMISS:          0  itACCESS:          0  itHIT:          0  itMISS:          0  dtACCESS:          0  dtHIT:          0  dtMISS:          0
cpu0_L1I LOAD         ACCESS:   10565457  HIT:    8353132  MISS:    2212325  iACCESS:   10565457  iHIT:    8353132  iMISS:    2212325  dACCESS:          0  dHIT:          0  dMISS:          0  itACCESS:          0  itHIT:          0  itMISS:          0  dtACCESS:          0  dtHIT:          0  dtMISS:          0
cpu0_L1I RFO          ACCESS:          0  HIT:          0  MISS:          0  iACCESS:          0  iHIT:          0  iMISS:          0  dACCESS:          0  dHIT:          0  dMISS:          0  itACCESS:          0  itHIT:          0  itMISS:          0  dtACCESS:          0  dtHIT:          0  dtMISS:          0
cpu0_L1I PREFETCH     ACCESS:   25537502  HIT:   19736941  MISS:    5800561  iACCESS:   25537502  iHIT:   19736941  iMISS:    5800561  dACCESS:          0  dHIT:          0  dMISS:          0  itACCESS:          0  itHIT:          0  itMISS:          0  dtACCESS:          0  dtHIT:          0  dtMISS:          0
cpu0_L1I WRITE        ACCESS:          0  HIT:          0  MISS:          0  iACCESS:          0  iHIT:          0  iMISS:          0  dACCESS:          0  dHIT:          0  dMISS:          0  itACCESS:          0  itHIT:          0  itMISS:          0  dtACCESS:          0  dtHIT:          0  dtMISS:          0
cpu0_L1I TRANSLATION  ACCESS:          0  HIT:          0  MISS:          0  iACCESS:          0  iHIT:          0  iMISS:          0  dACCESS:          0  dHIT:          0  dMISS:          0  itACCESS:          0  itHIT:          0  itMISS:          0  dtACCESS:          0  dtHIT:          0  dtMISS:          0
cpu0_L1I PREFETCH  REQUESTED:   28103427  ISSUED:   28103427  CROSSED:          0  USEFUL:    2009905  USELESS:     660736
cpu0_L1I AVERAGE iMISS LATENCY: 18.647 cycles
cpu0_L1I AVERAGE dMISS LATENCY: 0 cycles
cpu0_L1I AVERAGE itMISS LATENCY: 0 cycles
cpu0_L1I AVERAGE dtMISS LATENCY: 0 cycles
cpu0_L1I PAGE CROSSINGS (TLB HIT):         0 
cpu0_L1I PAGE CROSSINGS (TLB MISS):         0 
cpu0_L1I AVERAGE MISS LATENCY: 18.647 cycles
cpu0_ITLB TOTAL       ACCESS:   30308486  HIT:   28343884  MISS:    1964602  iACCESS:   30308486  iHIT:   28343884  iMISS:    1964602  dACCESS:          0  dHIT:          0  dMISS:          0  itACCESS:          0  itHIT:          0  itMISS:          0  dtACCESS:          0  dtHIT:          0  dtMISS:          0
cpu0_ITLB LOAD         ACCESS:   30308486  HIT:   28343884  MISS:    1964602  iACCESS:   30308486  iHIT:   28343884  iMISS:    1964602  dACCESS:          0  dHIT:          0  dMISS:          0  itACCESS:          0  itHIT:          0  itMISS:          0  dtACCESS:          0  dtHIT:          0  dtMISS:          0
cpu0_ITLB RFO          ACCESS:          0  HIT:          0  MISS:          0  iACCESS:          0  iHIT:          0  iMISS:          0  dACCESS:          0  dHIT:          0  dMISS:          0  itACCESS:          0  itHIT:          0  itMISS:          0  dtACCESS:          0  dtHIT:          0  dtMISS:          0
cpu0_ITLB PREFETCH     ACCESS:          0  HIT:          0  MISS:          0  iACCESS:          0  iHIT:          0  iMISS:          0  dACCESS:          0  dHIT:          0  dMISS:          0  itACCESS:          0  itHIT:          0  itMISS:          0  dtACCESS:          0  dtHIT:          0  dtMISS:          0
cpu0_ITLB WRITE        ACCESS:          0  HIT:          0  MISS:          0  iACCESS:          0  iHIT:          0  iMISS:          0  dACCESS:          0  dHIT:          0  dMISS:          0  itACCESS:          0  itHIT:          0  itMISS:          0  dtACCESS:          0  dtHIT:          0  dtMISS:          0
cpu0_ITLB TRANSLATION  ACCESS:          0  HIT:          0  MISS:          0  iACCESS:          0  iHIT:          0  iMISS:          0  dACCESS:          0  dHIT:          0  dMISS:          0  itACCESS:          0  itHIT:          0  itMISS:          0  dtACCESS:          0  dtHIT:          0  dtMISS:          0
cpu0_ITLB PREFETCH  REQUESTED:          0  ISSUED:          0  CROSSED:          0  USEFUL:     329284  USELESS:      66720
cpu0_ITLB AVERAGE iMISS LATENCY: 4.03607 cycles
cpu0_ITLB AVERAGE dMISS LATENCY: 0 cycles
cpu0_ITLB AVERAGE itMISS LATENCY: 0 cycles
cpu0_ITLB AVERAGE dtMISS LATENCY: 0 cycles
cpu0_ITLB PAGE CROSSINGS (TLB HIT):         0 
cpu0_ITLB PAGE CROSSINGS (TLB MISS):         0 
cpu0_ITLB AVERAGE MISS LATENCY: 4.03607 cycles
cpu0_DTLB TOTAL       ACCESS:   27964666  HIT:   25858629  MISS:    2106037  iACCESS:          0  iHIT:          0  iMISS:          0  dACCESS:   27964666  dHIT:   25858629  dMISS:    2106037  itACCESS:          0  itHIT:          0  itMISS:          0  dtACCESS:          0  dtHIT:          0  dtMISS:          0
cpu0_DTLB LOAD         ACCESS:   27964666  HIT:   25858629  MISS:    2106037  iACCESS:          0  iHIT:          0  iMISS:          0  dACCESS:   27964666  dHIT:   25858629  dMISS:    2106037  itACCESS:          0  itHIT:          0  itMISS:          0  dtACCESS:          0  dtHIT:          0  dtMISS:          0
cpu0_DTLB RFO          ACCESS:          0  HIT:          0  MISS:          0  iACCESS:          0  iHIT:          0  iMISS:          0  dACCESS:          0  dHIT:          0  dMISS:          0  itACCESS:          0  itHIT:          0  itMISS:          0  dtACCESS:          0  dtHIT:          0  dtMISS:          0
cpu0_DTLB PREFETCH     ACCESS:          0  HIT:          0  MISS:          0  iACCESS:          0  iHIT:          0  iMISS:          0  dACCESS:          0  dHIT:          0  dMISS:          0  itACCESS:          0  itHIT:          0  itMISS:          0  dtACCESS:          0  dtHIT:          0  dtMISS:          0
cpu0_DTLB WRITE        ACCESS:          0  HIT:          0  MISS:          0  iACCESS:          0  iHIT:          0  iMISS:          0  dACCESS:          0  dHIT:          0  dMISS:          0  itACCESS:          0  itHIT:          0  itMISS:          0  dtACCESS:          0  dtHIT:          0  dtMISS:          0
cpu0_DTLB TRANSLATION  ACCESS:          0  HIT:          0  MISS:          0  iACCESS:          0  iHIT:          0  iMISS:          0  dACCESS:          0  dHIT:          0  dMISS:          0  itACCESS:          0  itHIT:          0  itMISS:          0  dtACCESS:          0  dtHIT:          0  dtMISS:          0
cpu0_DTLB PREFETCH  REQUESTED:          0  ISSUED:          0  CROSSED:          0  USEFUL:          0  USELESS:          0
cpu0_DTLB AVERAGE iMISS LATENCY: 0 cycles
cpu0_DTLB AVERAGE dMISS LATENCY: 21.45 cycles
cpu0_DTLB AVERAGE itMISS LATENCY: 0 cycles
cpu0_DTLB AVERAGE dtMISS LATENCY: 0 cycles
cpu0_DTLB PAGE CROSSINGS (TLB HIT):         0 
cpu0_DTLB PAGE CROSSINGS (TLB MISS):         0 
cpu0_DTLB AVERAGE MISS LATENCY: 21.45 cycles
cpu0_STLB TOTAL       ACCESS:    1619527  HIT:    1413426  MISS:     206101  iACCESS:     396004  iHIT:     366952  iMISS:      29052  dACCESS:    1223523  dHIT:    1046474  dMISS:     177049  itACCESS:          0  itHIT:          0  itMISS:          0  dtACCESS:          0  dtHIT:          0  dtMISS:          0
cpu0_STLB LOAD         ACCESS:    1619527  HIT:    1413426  MISS:     206101  iACCESS:     396004  iHIT:     366952  iMISS:      29052  dACCESS:    1223523  dHIT:    1046474  dMISS:     177049  itACCESS:          0  itHIT:          0  itMISS:          0  dtACCESS:          0  dtHIT:          0  dtMISS:          0
cpu0_STLB RFO          ACCESS:          0  HIT:          0  MISS:          0  iACCESS:          0  iHIT:          0  iMISS:          0  dACCESS:          0  dHIT:          0  dMISS:          0  itACCESS:          0  itHIT:          0  itMISS:          0  dtACCESS:          0  dtHIT:          0  dtMISS:          0
cpu0_STLB PREFETCH     ACCESS:          0  HIT:          0  MISS:          0  iACCESS:          0  iHIT:          0  iMISS:          0  dACCESS:          0  dHIT:          0  dMISS:          0  itACCESS:          0  itHIT:          0  itMISS:          0  dtACCESS:          0  dtHIT:          0  dtMISS:          0
cpu0_STLB WRITE        ACCESS:          0  HIT:          0  MISS:          0  iACCESS:          0  iHIT:          0  iMISS:          0  dACCESS:          0  dHIT:          0  dMISS:          0  itACCESS:          0  itHIT:          0  itMISS:          0  dtACCESS:          0  dtHIT:          0  dtMISS:          0
cpu0_STLB TRANSLATION  ACCESS:          0  HIT:          0  MISS:          0  iACCESS:          0  iHIT:          0  iMISS:          0  dACCESS:          0  dHIT:          0  dMISS:          0  itACCESS:          0  itHIT:          0  itMISS:          0  dtACCESS:          0  dtHIT:          0  dtMISS:          0
cpu0_STLB PREFETCH  REQUESTED:          0  ISSUED:          0  CROSSED:          0  USEFUL:          0  USELESS:          0
cpu0_STLB AVERAGE iMISS LATENCY: 23.4689 cycles
cpu0_STLB AVERAGE dMISS LATENCY: 171.615 cycles
cpu0_STLB AVERAGE itMISS LATENCY: 0 cycles
cpu0_STLB AVERAGE dtMISS LATENCY: 0 cycles
cpu0_STLB PAGE CROSSINGS (TLB HIT):         0 
cpu0_STLB PAGE CROSSINGS (TLB MISS):         0 
cpu0_STLB AVERAGE MISS LATENCY: 195.084 cycles
cpu0_L1D TOTAL       ACCESS:   43305054  HIT:   38511693  MISS:    4793361  iACCESS:          0  iHIT:          0  iMISS:          0  dACCESS:   43019113  dHIT:   38495030  dMISS:    4524083  itACCESS:      32799  itHIT:       2937  itMISS:      29862  dtACCESS:     253142  dtHIT:      13726  dtMISS:     239416
cpu0_L1D LOAD         ACCESS:   19652679  HIT:   17558698  MISS:    2093981  iACCESS:          0  iHIT:          0  iMISS:          0  dACCESS:   19652679  dHIT:   17558698  dMISS:    2093981  itACCESS:          0  itHIT:          0  itMISS:          0  dtACCESS:          0  dtHIT:          0  dtMISS:          0
cpu0_L1D RFO          ACCESS:          0  HIT:          0  MISS:          0  iACCESS:          0  iHIT:          0  iMISS:          0  dACCESS:          0  dHIT:          0  dMISS:          0  itACCESS:          0  itHIT:          0  itMISS:          0  dtACCESS:          0  dtHIT:          0  dtMISS:          0
cpu0_L1D PREFETCH     ACCESS:   13202543  HIT:   11234384  MISS:    1968159  iACCESS:          0  iHIT:          0  iMISS:          0  dACCESS:   13202543  dHIT:   11234384  dMISS:    1968159  itACCESS:          0  itHIT:          0  itMISS:          0  dtACCESS:          0  dtHIT:          0  dtMISS:          0
cpu0_L1D WRITE        ACCESS:   10163891  HIT:    9701948  MISS:     461943  iACCESS:          0  iHIT:          0  iMISS:          0  dACCESS:   10163891  dHIT:    9701948  dMISS:     461943  itACCESS:          0  itHIT:          0  itMISS:          0  dtACCESS:          0  dtHIT:          0  dtMISS:          0
cpu0_L1D TRANSLATION  ACCESS:     285941  HIT:      16663  MISS:     269278  iACCESS:          0  iHIT:          0  iMISS:          0  dACCESS:          0  dHIT:          0  dMISS:          0  itACCESS:      32799  itHIT:       2937  itMISS:      29862  dtACCESS:     253142  dtHIT:      13726  dtMISS:     239416
cpu0_L1D PREFETCH  REQUESTED:   19652679  ISSUED:   17455896  CROSSED:          0  USEFUL:     308208  USELESS:     706864
cpu0_L1D AVERAGE iMISS LATENCY: 0 cycles
cpu0_L1D AVERAGE dMISS LATENCY: 35.4181 cycles
cpu0_L1D AVERAGE itMISS LATENCY: 0.947491 cycles
cpu0_L1D AVERAGE dtMISS LATENCY: 6.87844 cycles
cpu0_L1D PAGE CROSSINGS (TLB HIT):         0 
cpu0_L1D PAGE CROSSINGS (TLB MISS):         0 
cpu0_L1D AVERAGE MISS LATENCY: 43.2441 cycles
cpu0_L2C TOTAL       ACCESS:    7348207  HIT:    3807893  MISS:    3540314  iACCESS:    3423434  iHIT:    2105497  iMISS:    1317937  dACCESS:    3669471  dHIT:    1662927  dMISS:    2006544  itACCESS:      29830  itHIT:       4437  itMISS:      25393  dtACCESS:     225472  dtHIT:      35032  dtMISS:     190440
cpu0_L2C LOAD         ACCESS:    1749521  HIT:     947045  MISS:     802476  iACCESS:     791077  iHIT:     517761  iMISS:     273316  dACCESS:     958444  dHIT:     429284  dMISS:     529160  itACCESS:          0  itHIT:          0  itMISS:          0  dtACCESS:          0  dtHIT:          0  dtMISS:          0
cpu0_L2C RFO          ACCESS:     163315  HIT:      64977  MISS:      98338  iACCESS:          0  iHIT:          0  iMISS:          0  dACCESS:     163315  dHIT:      64977  dMISS:      98338  itACCESS:          0  itHIT:          0  itMISS:          0  dtACCESS:          0  dtHIT:          0  dtMISS:          0
cpu0_L2C PREFETCH     ACCESS:    4900357  HIT:    2478400  MISS:    2421957  iACCESS:    2632357  iHIT:    1587736  iMISS:    1044621  dACCESS:    2268000  dHIT:     890664  dMISS:    1377336  itACCESS:          0  itHIT:          0  itMISS:          0  dtACCESS:          0  dtHIT:          0  dtMISS:          0
cpu0_L2C WRITE        ACCESS:     279712  HIT:     278002  MISS:       1710  iACCESS:          0  iHIT:          0  iMISS:          0  dACCESS:     279712  dHIT:     278002  dMISS:       1710  itACCESS:          0  itHIT:          0  itMISS:          0  dtACCESS:          0  dtHIT:          0  dtMISS:          0
cpu0_L2C TRANSLATION  ACCESS:     255302  HIT:      39469  MISS:     215833  iACCESS:          0  iHIT:          0  iMISS:          0  dACCESS:          0  dHIT:          0  dMISS:          0  itACCESS:      29830  itHIT:       4437  itMISS:      25393  dtACCESS:     225472  dtHIT:      35032  dtMISS:     190440
cpu0_L2C PREFETCH  REQUESTED:    1519765  ISSUED:    1519717  CROSSED:          0  USEFUL:     371273  USELESS:     292335
cpu0_L2C AVERAGE iMISS LATENCY: 33.7003 cycles
cpu0_L2C AVERAGE dMISS LATENCY: 61.0612 cycles
cpu0_L2C AVERAGE itMISS LATENCY: 1.19958 cycles
cpu0_L2C AVERAGE dtMISS LATENCY: 8.68206 cycles
cpu0_L2C PAGE CROSSINGS (TLB HIT):         0 
cpu0_L2C PAGE CROSSINGS (TLB MISS):         0 
cpu0_L2C AVERAGE MISS LATENCY: 104.644 cycles
LLC TOTAL       ACCESS:    3502518  HIT:    1616459  MISS:    1886059  iACCESS:    1239591  iHIT:     598777  iMISS:     640814  dACCESS:    2047094  dHIT:     967501  dMISS:    1079593  itACCESS:      25393  itHIT:       4265  itMISS:      21128  dtACCESS:     190440  dtHIT:      45916  dtMISS:     144524
LLC LOAD         ACCESS:     795870  HIT:     383873  MISS:     411997  iACCESS:     272134  iHIT:     135347  iMISS:     136787  dACCESS:     523736  dHIT:     248526  dMISS:     275210  itACCESS:          0  itHIT:          0  itMISS:          0  dtACCESS:          0  dtHIT:          0  dtMISS:          0
LLC RFO          ACCESS:      98333  HIT:      40738  MISS:      57595  iACCESS:          0  iHIT:          0  iMISS:          0  dACCESS:      98333  dHIT:      40738  dMISS:      57595  itACCESS:          0  itHIT:          0  itMISS:          0  dtACCESS:          0  dtHIT:          0  dtMISS:          0
LLC PREFETCH     ACCESS:    2245354  HIT:    1003819  MISS:    1241535  iACCESS:     967457  iHIT:     463430  iMISS:     504027  dACCESS:    1277897  dHIT:     540389  dMISS:     737508  itACCESS:          0  itHIT:          0  itMISS:          0  dtACCESS:          0  dtHIT:          0  dtMISS:          0
LLC WRITE        ACCESS:     147128  HIT:     137848  MISS:       9280  iACCESS:          0  iHIT:          0  iMISS:          0  dACCESS:     147128  dHIT:     137848  dMISS:       9280  itACCESS:          0  itHIT:          0  itMISS:          0  dtACCESS:          0  dtHIT:          0  dtMISS:          0
LLC TRANSLATION  ACCESS:     215833  HIT:      50181  MISS:     165652  iACCESS:          0  iHIT:          0  iMISS:          0  dACCESS:          0  dHIT:          0  dMISS:          0  itACCESS:      25393  itHIT:       4265  itMISS:      21128  dtACCESS:     190440  dtHIT:      45916  dtMISS:     144524
LLC PREFETCH  REQUESTED:          0  ISSUED:          0  CROSSED:          0  USEFUL:          0  USELESS:          0
LLC AVERAGE iMISS LATENCY: 50.4148 cycles
LLC AVERAGE dMISS LATENCY: 96.3469 cycles
LLC AVERAGE itMISS LATENCY: 1.98574 cycles
LLC AVERAGE dtMISS LATENCY: 14.3104 cycles
LLC PAGE CROSSINGS (TLB HIT):         0 
LLC PAGE CROSSINGS (TLB MISS):         0 
LLC AVERAGE MISS LATENCY: 163.058 cycles

PageTableWalker TOTAL       ACCESS:      97656  
PageTableWalker AVERAGE LATENCY: 5.31544 cycles
PageTableWalker TOTAL LATENCY: 519084 cycles

DRAM Statistics
Channel 0
 RQ ROW_BUFFER_HIT:     512331
  ROW_BUFFER_MISS:    1342917
 AVG DBUS CONGESTED CYCLE:    3.63609
 WQ ROW_BUFFER_HIT:      36732
  ROW_BUFFER_MISS:      26643  FULL:          0

