last_page:0x200000000000000
VMEM_RES_CAP:0x100000
PAGE_SIZE:4096
LOG2_PAGE_SIZE:12
LOG2_PAGE_TABLE_SIZE:9
page_table_levels:5
WARNING: physical memory size is smaller than virtual memory size
FDiP enabled with aggresivity 16

*** ChampSim Multicore Out-of-Order Simulator ***

Warmup Instructions: 50000000
Simulation Instructions: 100000000
Number of CPUs: 1
Small page size: 4096
Large page size: 2097152

CPU 0 Bimodal branch predictor
Basic BTB sets: 1024 ways: 8 indirect buffer size: 4096 RAS size: 64
Instruction page size distrubution: 0
Loading instruction page size distribution from /home/bsc/bsc018186/scratch/itp_asplos25_AE/dump/srv582_ap.pdst
Data page size distrubution: 0
Loading data page size distribution from /home/bsc/bsc018186/scratch/itp_asplos25_AE/dump/srv582_ap.pdst
cpu0_L2C IP-based stride prefetcher
cpu0_L1D next line prefetcher
cpu0_STLB using iTP with max lru@8
cpu0_STLB using iTP with instr@0 and data@2
Init sat counter with 3 bits (max:50).
cpu0_L1I next line prefetcher
Off-chip DRAM Size: 4 GiB Channels: 1 Width: 64-bit Data Rate: 3200 MT/s
Heartbeat CPU 0 instructions: 10000002 cycles: 2500130 heartbeat IPC: 3.9998 cumulative IPC: 3.9998 (Simulation time: 0 hr 0 min 37 sec) 
Heartbeat CPU 0 instructions: 20000002 cycles: 5000173 heartbeat IPC: 3.99994 cumulative IPC: 3.99987 (Simulation time: 0 hr 1 min 16 sec) 
Heartbeat CPU 0 instructions: 30000003 cycles: 7500178 heartbeat IPC: 4 cumulative IPC: 3.99991 (Simulation time: 0 hr 1 min 55 sec) 
Heartbeat CPU 0 instructions: 40000001 cycles: 10000231 heartbeat IPC: 3.99992 cumulative IPC: 3.99991 (Simulation time: 0 hr 2 min 35 sec) 
Heartbeat CPU 0 instructions: 50000000 cycles: 12500301 heartbeat IPC: 3.99989 cumulative IPC: 3.99991 (Simulation time: 0 hr 3 min 15 sec) 
Warmup finished CPU 0 instructions: 50000000 cycles: 12500302 cumulative IPC: 3.99991 (Simulation time: 0 hr 3 min 15 sec) 

Warmup complete CPU 0 instructions: 50000000 cycles: 12500302 (Simulation time: 0 hr 3 min 15 sec) 

Heartbeat CPU 0 instructions: 60000001 cycles: 33418870 heartbeat IPC: 0.478045 cumulative IPC: 0.478045 (Simulation time: 0 hr 4 min 27 sec) 
Heartbeat CPU 0 instructions: 70000001 cycles: 53318704 heartbeat IPC: 0.502517 cumulative IPC: 0.489976 (Simulation time: 0 hr 5 min 37 sec) 
Heartbeat CPU 0 instructions: 80000002 cycles: 73001454 heartbeat IPC: 0.50806 cumulative IPC: 0.495859 (Simulation time: 0 hr 6 min 48 sec) 
Heartbeat CPU 0 instructions: 90000000 cycles: 93618767 heartbeat IPC: 0.48503 cumulative IPC: 0.493106 (Simulation time: 0 hr 8 min 1 sec) 
Heartbeat CPU 0 instructions: 100000002 cycles: 113703767 heartbeat IPC: 0.497885 cumulative IPC: 0.494055 (Simulation time: 0 hr 9 min 14 sec) 
*** Reached end of trace: /gpfs/projects/bsc18/MN4/bsc18/romol/ChampSim/traces/qualcomm_srv/srv582_ap.champsimtrace.xz
Heartbeat CPU 0 instructions: 110000002 cycles: 133571554 heartbeat IPC: 0.503328 cumulative IPC: 0.495576 (Simulation time: 0 hr 10 min 26 sec) 
Heartbeat CPU 0 instructions: 120000000 cycles: 153837481 heartbeat IPC: 0.493439 cumulative IPC: 0.49527 (Simulation time: 0 hr 11 min 39 sec) 
Heartbeat CPU 0 instructions: 130000001 cycles: 174140758 heartbeat IPC: 0.492532 cumulative IPC: 0.494926 (Simulation time: 0 hr 12 min 52 sec) 
Heartbeat CPU 0 instructions: 140000003 cycles: 193780972 heartbeat IPC: 0.50916 cumulative IPC: 0.496468 (Simulation time: 0 hr 14 min 3 sec) 
Heartbeat CPU 0 instructions: 150000001 cycles: 213808038 heartbeat IPC: 0.499325 cumulative IPC: 0.496752 (Simulation time: 0 hr 15 min 16 sec) 
Simulation finished CPU 0 instructions: 100000001 cycles: 201307737 cumulative IPC: 0.496752 (Simulation time: 0 hr 15 min 16 sec) 

Simulation complete CPU 0 instructions: 100000001 cycles: 201307737 (Simulation time: 0 hr 15 min 16 sec) 


ChampSim completed all CPUs

Saving instructions large page distribution to /home/bsc/bsc018186/scratch/itp_asplos25_AE/dump/srv582_ap.pdst...
Saving data large page distribution to /home/bsc/bsc018186/scratch/itp_asplos25_AE/dump/srv582_ap.pdst...
=== Simulation ===
CPU 0 runs /gpfs/projects/bsc18/MN4/bsc18/romol/ChampSim/traces/qualcomm_srv/srv582_ap.champsimtrace.xz

Region of Interest Statistics

CPU 0 cumulative IPC: 0.496752 instructions: 100000001 cycles: 201307737
CPU 0 Branch Prediction Accuracy: 80.4% MPKI: 35.3486 Average ROB Occupancy at Mispredict: 11.0019
Branch type MPKI
BRANCH_DIRECT_JUMP: 1.30404
BRANCH_INDIRECT: 17.6612
BRANCH_CONDITIONAL: 11.5138
BRANCH_DIRECT_CALL: 2.45731
BRANCH_INDIRECT_CALL: 0.69169
BRANCH_RETURN: 1.72064

Instructions large pages: 0
Instructions small pages: 1097
Large page distribution for instructions: 0%

Data large pages: 0
Data small pages: 4776
Large page distribution for data: 0%

cpu0_L1I TOTAL       ACCESS:   35297432  HIT:   27468427  MISS:    7829005  iACCESS:   35297432  iHIT:   27468427  iMISS:    7829005  dACCESS:          0  dHIT:          0  dMISS:          0  itACCESS:          0  itHIT:          0  itMISS:          0  dtACCESS:          0  dtHIT:          0  dtMISS:          0
cpu0_L1I LOAD         ACCESS:   10182039  HIT:    8031827  MISS:    2150212  iACCESS:   10182039  iHIT:    8031827  iMISS:    2150212  dACCESS:          0  dHIT:          0  dMISS:          0  itACCESS:          0  itHIT:          0  itMISS:          0  dtACCESS:          0  dtHIT:          0  dtMISS:          0
cpu0_L1I RFO          ACCESS:          0  HIT:          0  MISS:          0  iACCESS:          0  iHIT:          0  iMISS:          0  dACCESS:          0  dHIT:          0  dMISS:          0  itACCESS:          0  itHIT:          0  itMISS:          0  dtACCESS:          0  dtHIT:          0  dtMISS:          0
cpu0_L1I PREFETCH     ACCESS:   25115393  HIT:   19436600  MISS:    5678793  iACCESS:   25115393  iHIT:   19436600  iMISS:    5678793  dACCESS:          0  dHIT:          0  dMISS:          0  itACCESS:          0  itHIT:          0  itMISS:          0  dtACCESS:          0  dtHIT:          0  dtMISS:          0
cpu0_L1I WRITE        ACCESS:          0  HIT:          0  MISS:          0  iACCESS:          0  iHIT:          0  iMISS:          0  dACCESS:          0  dHIT:          0  dMISS:          0  itACCESS:          0  itHIT:          0  itMISS:          0  dtACCESS:          0  dtHIT:          0  dtMISS:          0
cpu0_L1I TRANSLATION  ACCESS:          0  HIT:          0  MISS:          0  iACCESS:          0  iHIT:          0  iMISS:          0  dACCESS:          0  dHIT:          0  dMISS:          0  itACCESS:          0  itHIT:          0  itMISS:          0  dtACCESS:          0  dtHIT:          0  dtMISS:          0
cpu0_L1I PREFETCH  REQUESTED:   27511336  ISSUED:   27511336  CROSSED:          0  USEFUL:    1965340  USELESS:     652058
cpu0_L1I AVERAGE iMISS LATENCY: 19.3951 cycles
cpu0_L1I AVERAGE dMISS LATENCY: 0 cycles
cpu0_L1I AVERAGE itMISS LATENCY: 0 cycles
cpu0_L1I AVERAGE dtMISS LATENCY: 0 cycles
cpu0_L1I PAGE CROSSINGS (TLB HIT):         0 
cpu0_L1I PAGE CROSSINGS (TLB MISS):         0 
cpu0_L1I AVERAGE MISS LATENCY: 19.3951 cycles
cpu0_ITLB TOTAL       ACCESS:   29778188  HIT:   27833354  MISS:    1944834  iACCESS:   29778188  iHIT:   27833354  iMISS:    1944834  dACCESS:          0  dHIT:          0  dMISS:          0  itACCESS:          0  itHIT:          0  itMISS:          0  dtACCESS:          0  dtHIT:          0  dtMISS:          0
cpu0_ITLB LOAD         ACCESS:   29778188  HIT:   27833354  MISS:    1944834  iACCESS:   29778188  iHIT:   27833354  iMISS:    1944834  dACCESS:          0  dHIT:          0  dMISS:          0  itACCESS:          0  itHIT:          0  itMISS:          0  dtACCESS:          0  dtHIT:          0  dtMISS:          0
cpu0_ITLB RFO          ACCESS:          0  HIT:          0  MISS:          0  iACCESS:          0  iHIT:          0  iMISS:          0  dACCESS:          0  dHIT:          0  dMISS:          0  itACCESS:          0  itHIT:          0  itMISS:          0  dtACCESS:          0  dtHIT:          0  dtMISS:          0
cpu0_ITLB PREFETCH     ACCESS:          0  HIT:          0  MISS:          0  iACCESS:          0  iHIT:          0  iMISS:          0  dACCESS:          0  dHIT:          0  dMISS:          0  itACCESS:          0  itHIT:          0  itMISS:          0  dtACCESS:          0  dtHIT:          0  dtMISS:          0
cpu0_ITLB WRITE        ACCESS:          0  HIT:          0  MISS:          0  iACCESS:          0  iHIT:          0  iMISS:          0  dACCESS:          0  dHIT:          0  dMISS:          0  itACCESS:          0  itHIT:          0  itMISS:          0  dtACCESS:          0  dtHIT:          0  dtMISS:          0
cpu0_ITLB TRANSLATION  ACCESS:          0  HIT:          0  MISS:          0  iACCESS:          0  iHIT:          0  iMISS:          0  dACCESS:          0  dHIT:          0  dMISS:          0  itACCESS:          0  itHIT:          0  itMISS:          0  dtACCESS:          0  dtHIT:          0  dtMISS:          0
cpu0_ITLB PREFETCH  REQUESTED:          0  ISSUED:          0  CROSSED:          0  USEFUL:     329011  USELESS:      61906
cpu0_ITLB AVERAGE iMISS LATENCY: 3.39972 cycles
cpu0_ITLB AVERAGE dMISS LATENCY: 0 cycles
cpu0_ITLB AVERAGE itMISS LATENCY: 0 cycles
cpu0_ITLB AVERAGE dtMISS LATENCY: 0 cycles
cpu0_ITLB PAGE CROSSINGS (TLB HIT):         0 
cpu0_ITLB PAGE CROSSINGS (TLB MISS):         0 
cpu0_ITLB AVERAGE MISS LATENCY: 3.39972 cycles
cpu0_DTLB TOTAL       ACCESS:   27981224  HIT:   25966362  MISS:    2014862  iACCESS:          0  iHIT:          0  iMISS:          0  dACCESS:   27981224  dHIT:   25966362  dMISS:    2014862  itACCESS:          0  itHIT:          0  itMISS:          0  dtACCESS:          0  dtHIT:          0  dtMISS:          0
cpu0_DTLB LOAD         ACCESS:   27981224  HIT:   25966362  MISS:    2014862  iACCESS:          0  iHIT:          0  iMISS:          0  dACCESS:   27981224  dHIT:   25966362  dMISS:    2014862  itACCESS:          0  itHIT:          0  itMISS:          0  dtACCESS:          0  dtHIT:          0  dtMISS:          0
cpu0_DTLB RFO          ACCESS:          0  HIT:          0  MISS:          0  iACCESS:          0  iHIT:          0  iMISS:          0  dACCESS:          0  dHIT:          0  dMISS:          0  itACCESS:          0  itHIT:          0  itMISS:          0  dtACCESS:          0  dtHIT:          0  dtMISS:          0
cpu0_DTLB PREFETCH     ACCESS:          0  HIT:          0  MISS:          0  iACCESS:          0  iHIT:          0  iMISS:          0  dACCESS:          0  dHIT:          0  dMISS:          0  itACCESS:          0  itHIT:          0  itMISS:          0  dtACCESS:          0  dtHIT:          0  dtMISS:          0
cpu0_DTLB WRITE        ACCESS:          0  HIT:          0  MISS:          0  iACCESS:          0  iHIT:          0  iMISS:          0  dACCESS:          0  dHIT:          0  dMISS:          0  itACCESS:          0  itHIT:          0  itMISS:          0  dtACCESS:          0  dtHIT:          0  dtMISS:          0
cpu0_DTLB TRANSLATION  ACCESS:          0  HIT:          0  MISS:          0  iACCESS:          0  iHIT:          0  iMISS:          0  dACCESS:          0  dHIT:          0  dMISS:          0  itACCESS:          0  itHIT:          0  itMISS:          0  dtACCESS:          0  dtHIT:          0  dtMISS:          0
cpu0_DTLB PREFETCH  REQUESTED:          0  ISSUED:          0  CROSSED:          0  USEFUL:          0  USELESS:          0
cpu0_DTLB AVERAGE iMISS LATENCY: 0 cycles
cpu0_DTLB AVERAGE dMISS LATENCY: 22.95 cycles
cpu0_DTLB AVERAGE itMISS LATENCY: 0 cycles
cpu0_DTLB AVERAGE dtMISS LATENCY: 0 cycles
cpu0_DTLB PAGE CROSSINGS (TLB HIT):         0 
cpu0_DTLB PAGE CROSSINGS (TLB MISS):         0 
cpu0_DTLB AVERAGE MISS LATENCY: 22.95 cycles
cpu0_STLB TOTAL       ACCESS:    1602355  HIT:    1394193  MISS:     208162  iACCESS:     390926  iHIT:     369543  iMISS:      21383  dACCESS:    1211429  dHIT:    1024650  dMISS:     186779  itACCESS:          0  itHIT:          0  itMISS:          0  dtACCESS:          0  dtHIT:          0  dtMISS:          0
cpu0_STLB LOAD         ACCESS:    1602355  HIT:    1394193  MISS:     208162  iACCESS:     390926  iHIT:     369543  iMISS:      21383  dACCESS:    1211429  dHIT:    1024650  dMISS:     186779  itACCESS:          0  itHIT:          0  itMISS:          0  dtACCESS:          0  dtHIT:          0  dtMISS:          0
cpu0_STLB RFO          ACCESS:          0  HIT:          0  MISS:          0  iACCESS:          0  iHIT:          0  iMISS:          0  dACCESS:          0  dHIT:          0  dMISS:          0  itACCESS:          0  itHIT:          0  itMISS:          0  dtACCESS:          0  dtHIT:          0  dtMISS:          0
cpu0_STLB PREFETCH     ACCESS:          0  HIT:          0  MISS:          0  iACCESS:          0  iHIT:          0  iMISS:          0  dACCESS:          0  dHIT:          0  dMISS:          0  itACCESS:          0  itHIT:          0  itMISS:          0  dtACCESS:          0  dtHIT:          0  dtMISS:          0
cpu0_STLB WRITE        ACCESS:          0  HIT:          0  MISS:          0  iACCESS:          0  iHIT:          0  iMISS:          0  dACCESS:          0  dHIT:          0  dMISS:          0  itACCESS:          0  itHIT:          0  itMISS:          0  dtACCESS:          0  dtHIT:          0  dtMISS:          0
cpu0_STLB TRANSLATION  ACCESS:          0  HIT:          0  MISS:          0  iACCESS:          0  iHIT:          0  iMISS:          0  dACCESS:          0  dHIT:          0  dMISS:          0  itACCESS:          0  itHIT:          0  itMISS:          0  dtACCESS:          0  dtHIT:          0  dtMISS:          0
cpu0_STLB PREFETCH  REQUESTED:          0  ISSUED:          0  CROSSED:          0  USEFUL:          0  USELESS:          0
cpu0_STLB AVERAGE iMISS LATENCY: 17.1222 cycles
cpu0_STLB AVERAGE dMISS LATENCY: 175.349 cycles
cpu0_STLB AVERAGE itMISS LATENCY: 0 cycles
cpu0_STLB AVERAGE dtMISS LATENCY: 0 cycles
cpu0_STLB PAGE CROSSINGS (TLB HIT):         0 
cpu0_STLB PAGE CROSSINGS (TLB MISS):         0 
cpu0_STLB AVERAGE MISS LATENCY: 192.471 cycles
cpu0_L1D TOTAL       ACCESS:   42525130  HIT:   38432954  MISS:    4092176  iACCESS:          0  iHIT:          0  iMISS:          0  dACCESS:   42245347  dHIT:   38415593  dMISS:    3829754  itACCESS:      24522  itHIT:       1965  itMISS:      22557  dtACCESS:     255261  dtHIT:      15396  dtMISS:     239865
cpu0_L1D LOAD         ACCESS:   19347345  HIT:   17599861  MISS:    1747484  iACCESS:          0  iHIT:          0  iMISS:          0  dACCESS:   19347345  dHIT:   17599861  dMISS:    1747484  itACCESS:          0  itHIT:          0  itMISS:          0  dtACCESS:          0  dtHIT:          0  dtMISS:          0
cpu0_L1D RFO          ACCESS:          0  HIT:          0  MISS:          0  iACCESS:          0  iHIT:          0  iMISS:          0  dACCESS:          0  dHIT:          0  dMISS:          0  itACCESS:          0  itHIT:          0  itMISS:          0  dtACCESS:          0  dtHIT:          0  dtMISS:          0
cpu0_L1D PREFETCH     ACCESS:   12733113  HIT:   11135697  MISS:    1597416  iACCESS:          0  iHIT:          0  iMISS:          0  dACCESS:   12733113  dHIT:   11135697  dMISS:    1597416  itACCESS:          0  itHIT:          0  itMISS:          0  dtACCESS:          0  dtHIT:          0  dtMISS:          0
cpu0_L1D WRITE        ACCESS:   10164889  HIT:    9680035  MISS:     484854  iACCESS:          0  iHIT:          0  iMISS:          0  dACCESS:   10164889  dHIT:    9680035  dMISS:     484854  itACCESS:          0  itHIT:          0  itMISS:          0  dtACCESS:          0  dtHIT:          0  dtMISS:          0
cpu0_L1D TRANSLATION  ACCESS:     279783  HIT:      17361  MISS:     262422  iACCESS:          0  iHIT:          0  iMISS:          0  dACCESS:          0  dHIT:          0  dMISS:          0  itACCESS:      24522  itHIT:       1965  itMISS:      22557  dtACCESS:     255261  dtHIT:      15396  dtMISS:     239865
cpu0_L1D PREFETCH  REQUESTED:   19347345  ISSUED:   17335927  CROSSED:          0  USEFUL:     309558  USELESS:     708512
cpu0_L1D AVERAGE iMISS LATENCY: 0 cycles
cpu0_L1D AVERAGE dMISS LATENCY: 40.7314 cycles
cpu0_L1D AVERAGE itMISS LATENCY: 0.81705 cycles
cpu0_L1D AVERAGE dtMISS LATENCY: 8.3042 cycles
cpu0_L1D PAGE CROSSINGS (TLB HIT):         0 
cpu0_L1D PAGE CROSSINGS (TLB MISS):         0 
cpu0_L1D AVERAGE MISS LATENCY: 49.8527 cycles
cpu0_L2C TOTAL       ACCESS:    7254316  HIT:    3728978  MISS:    3525338  iACCESS:    3345830  iHIT:    2036039  iMISS:    1309791  dACCESS:    3650845  dHIT:    1652313  dMISS:    1998532  itACCESS:      22557  itHIT:       3522  itMISS:      19035  dtACCESS:     235084  dtHIT:      37104  dtMISS:     197980
cpu0_L2C LOAD         ACCESS:    1720888  HIT:     920866  MISS:     800022  iACCESS:     765697  iHIT:     498057  iMISS:     267640  dACCESS:     955191  dHIT:     422809  dMISS:     532382  itACCESS:          0  itHIT:          0  itMISS:          0  dtACCESS:          0  dtHIT:          0  dtMISS:          0
cpu0_L2C RFO          ACCESS:     165899  HIT:      61194  MISS:     104705  iACCESS:          0  iHIT:          0  iMISS:          0  dACCESS:     165899  dHIT:      61194  dMISS:     104705  itACCESS:          0  itHIT:          0  itMISS:          0  dtACCESS:          0  dtHIT:          0  dtMISS:          0
cpu0_L2C PREFETCH     ACCESS:    4833805  HIT:    2431419  MISS:    2402386  iACCESS:    2580133  iHIT:    1537982  iMISS:    1042151  dACCESS:    2253672  dHIT:     893437  dMISS:    1360235  itACCESS:          0  itHIT:          0  itMISS:          0  dtACCESS:          0  dtHIT:          0  dtMISS:          0
cpu0_L2C WRITE        ACCESS:     276083  HIT:     274873  MISS:       1210  iACCESS:          0  iHIT:          0  iMISS:          0  dACCESS:     276083  dHIT:     274873  dMISS:       1210  itACCESS:          0  itHIT:          0  itMISS:          0  dtACCESS:          0  dtHIT:          0  dtMISS:          0
cpu0_L2C TRANSLATION  ACCESS:     257641  HIT:      40626  MISS:     217015  iACCESS:          0  iHIT:          0  iMISS:          0  dACCESS:          0  dHIT:          0  dMISS:          0  itACCESS:      22557  itHIT:       3522  itMISS:      19035  dtACCESS:     235084  dtHIT:      37104  dtMISS:     197980
cpu0_L2C PREFETCH  REQUESTED:    1495819  ISSUED:    1495668  CROSSED:          0  USEFUL:     352685  USELESS:     296179
cpu0_L2C AVERAGE iMISS LATENCY: 34.781 cycles
cpu0_L2C AVERAGE dMISS LATENCY: 60.7093 cycles
cpu0_L2C AVERAGE itMISS LATENCY: 0.885193 cycles
cpu0_L2C AVERAGE dtMISS LATENCY: 8.97909 cycles
cpu0_L2C PAGE CROSSINGS (TLB HIT):         0 
cpu0_L2C PAGE CROSSINGS (TLB MISS):         0 
cpu0_L2C AVERAGE MISS LATENCY: 105.355 cycles
LLC TOTAL       ACCESS:    3485410  HIT:    1563413  MISS:    1921997  iACCESS:    1229778  iHIT:     561723  iMISS:     668055  dACCESS:    2038617  dHIT:     948591  dMISS:    1090026  itACCESS:      19035  itHIT:       3473  itMISS:      15562  dtACCESS:     197980  dtHIT:      49626  dtMISS:     148354
LLC LOAD         ACCESS:     793265  HIT:     375339  MISS:     417926  iACCESS:     266386  iHIT:     125650  iMISS:     140736  dACCESS:     526879  dHIT:     249689  dMISS:     277190  itACCESS:          0  itHIT:          0  itMISS:          0  dtACCESS:          0  dtHIT:          0  dtMISS:          0
LLC RFO          ACCESS:     104696  HIT:      38724  MISS:      65972  iACCESS:          0  iHIT:          0  iMISS:          0  dACCESS:     104696  dHIT:      38724  dMISS:      65972  itACCESS:          0  itHIT:          0  itMISS:          0  dtACCESS:          0  dtHIT:          0  dtMISS:          0
LLC PREFETCH     ACCESS:    2222305  HIT:     956248  MISS:    1266057  iACCESS:     963392  iHIT:     436073  iMISS:     527319  dACCESS:    1258913  dHIT:     520175  dMISS:     738738  itACCESS:          0  itHIT:          0  itMISS:          0  dtACCESS:          0  dtHIT:          0  dtMISS:          0
LLC WRITE        ACCESS:     148129  HIT:     140003  MISS:       8126  iACCESS:          0  iHIT:          0  iMISS:          0  dACCESS:     148129  dHIT:     140003  dMISS:       8126  itACCESS:          0  itHIT:          0  itMISS:          0  dtACCESS:          0  dtHIT:          0  dtMISS:          0
LLC TRANSLATION  ACCESS:     217015  HIT:      53099  MISS:     163916  iACCESS:          0  iHIT:          0  iMISS:          0  dACCESS:          0  dHIT:          0  dMISS:          0  itACCESS:      19035  itHIT:       3473  itMISS:      15562  dtACCESS:     197980  dtHIT:      49626  dtMISS:     148354
LLC PREFETCH  REQUESTED:          0  ISSUED:          0  CROSSED:          0  USEFUL:          0  USELESS:          0
LLC AVERAGE iMISS LATENCY: 51.2783 cycles
LLC AVERAGE dMISS LATENCY: 92.829 cycles
LLC AVERAGE itMISS LATENCY: 1.42815 cycles
LLC AVERAGE dtMISS LATENCY: 14.4434 cycles
LLC PAGE CROSSINGS (TLB HIT):         0 
LLC PAGE CROSSINGS (TLB MISS):         0 
LLC AVERAGE MISS LATENCY: 159.979 cycles

PageTableWalker TOTAL       ACCESS:      99184  
PageTableWalker AVERAGE LATENCY: 5.33964 cycles
PageTableWalker TOTAL LATENCY: 529606 cycles

DRAM Statistics
Channel 0
 RQ ROW_BUFFER_HIT:     531877
  ROW_BUFFER_MISS:    1370849
 AVG DBUS CONGESTED CYCLE:    3.63781
 WQ ROW_BUFFER_HIT:      39110
  ROW_BUFFER_MISS:      27620  FULL:          0

