last_page:0x200000000000000
VMEM_RES_CAP:0x100000
PAGE_SIZE:4096
LOG2_PAGE_SIZE:12
LOG2_PAGE_TABLE_SIZE:9
page_table_levels:5
WARNING: physical memory size is smaller than virtual memory size
FDiP enabled with aggresivity 16

*** ChampSim Multicore Out-of-Order Simulator ***

Warmup Instructions: 50000000
Simulation Instructions: 100000000
Number of CPUs: 1
Small page size: 4096
Large page size: 2097152

CPU 0 Bimodal branch predictor
Basic BTB sets: 1024 ways: 8 indirect buffer size: 4096 RAS size: 64
Instruction page size distrubution: 0
Loading instruction page size distribution from /home/bsc/bsc018186/scratch/itp_asplos25_AE/dump/srv56_ap.pdst
Data page size distrubution: 0
Loading data page size distribution from /home/bsc/bsc018186/scratch/itp_asplos25_AE/dump/srv56_ap.pdst
cpu0_L2C IP-based stride prefetcher
cpu0_L1D next line prefetcher
cpu0_L1I next line prefetcher
Off-chip DRAM Size: 4 GiB Channels: 1 Width: 64-bit Data Rate: 3200 MT/s
Heartbeat CPU 0 instructions: 10000002 cycles: 2500270 heartbeat IPC: 3.99957 cumulative IPC: 3.99957 (Simulation time: 0 hr 0 min 34 sec) 
Heartbeat CPU 0 instructions: 20000002 cycles: 5000292 heartbeat IPC: 3.99997 cumulative IPC: 3.99977 (Simulation time: 0 hr 1 min 11 sec) 
Heartbeat CPU 0 instructions: 30000001 cycles: 7500295 heartbeat IPC: 4 cumulative IPC: 3.99985 (Simulation time: 0 hr 1 min 48 sec) 
Heartbeat CPU 0 instructions: 40000002 cycles: 10000434 heartbeat IPC: 3.99978 cumulative IPC: 3.99983 (Simulation time: 0 hr 2 min 25 sec) 
Heartbeat CPU 0 instructions: 50000001 cycles: 12500471 heartbeat IPC: 3.99995 cumulative IPC: 3.99985 (Simulation time: 0 hr 3 min 2 sec) 
Warmup finished CPU 0 instructions: 50000001 cycles: 12500472 cumulative IPC: 3.99985 (Simulation time: 0 hr 3 min 2 sec) 

Warmup complete CPU 0 instructions: 50000001 cycles: 12500472 (Simulation time: 0 hr 3 min 2 sec) 

Heartbeat CPU 0 instructions: 60000000 cycles: 28246576 heartbeat IPC: 0.635078 cumulative IPC: 0.635078 (Simulation time: 0 hr 4 min 3 sec) 
Heartbeat CPU 0 instructions: 70000000 cycles: 43717363 heartbeat IPC: 0.64638 cumulative IPC: 0.640679 (Simulation time: 0 hr 5 min 3 sec) 
Heartbeat CPU 0 instructions: 80000004 cycles: 59880690 heartbeat IPC: 0.618685 cumulative IPC: 0.633176 (Simulation time: 0 hr 6 min 5 sec) 
Heartbeat CPU 0 instructions: 90000000 cycles: 75554395 heartbeat IPC: 0.638011 cumulative IPC: 0.634378 (Simulation time: 0 hr 7 min 6 sec) 
Heartbeat CPU 0 instructions: 100000001 cycles: 90493495 heartbeat IPC: 0.669385 cumulative IPC: 0.641083 (Simulation time: 0 hr 8 min 5 sec) 
*** Reached end of trace: /gpfs/projects/bsc18/MN4/bsc18/romol/ChampSim/traces/qualcomm_srv/srv56_ap.champsimtrace.xz
Heartbeat CPU 0 instructions: 110000001 cycles: 106318585 heartbeat IPC: 0.631908 cumulative IPC: 0.639536 (Simulation time: 0 hr 9 min 6 sec) 
Heartbeat CPU 0 instructions: 120000000 cycles: 121640337 heartbeat IPC: 0.652667 cumulative IPC: 0.641379 (Simulation time: 0 hr 10 min 7 sec) 
Heartbeat CPU 0 instructions: 130000000 cycles: 136784114 heartbeat IPC: 0.660338 cumulative IPC: 0.643689 (Simulation time: 0 hr 11 min 7 sec) 
Heartbeat CPU 0 instructions: 140000003 cycles: 153580834 heartbeat IPC: 0.595355 cumulative IPC: 0.637935 (Simulation time: 0 hr 12 min 9 sec) 
Heartbeat CPU 0 instructions: 150000002 cycles: 169048165 heartbeat IPC: 0.646524 cumulative IPC: 0.638783 (Simulation time: 0 hr 13 min 9 sec) 
Simulation finished CPU 0 instructions: 100000001 cycles: 156547694 cumulative IPC: 0.638783 (Simulation time: 0 hr 13 min 9 sec) 

Simulation complete CPU 0 instructions: 100000001 cycles: 156547694 (Simulation time: 0 hr 13 min 9 sec) 


ChampSim completed all CPUs

Saving instructions large page distribution to /home/bsc/bsc018186/scratch/itp_asplos25_AE/dump/srv56_ap.pdst...
Saving data large page distribution to /home/bsc/bsc018186/scratch/itp_asplos25_AE/dump/srv56_ap.pdst...
=== Simulation ===
CPU 0 runs /gpfs/projects/bsc18/MN4/bsc18/romol/ChampSim/traces/qualcomm_srv/srv56_ap.champsimtrace.xz

Region of Interest Statistics

CPU 0 cumulative IPC: 0.638783 instructions: 100000001 cycles: 156547694
CPU 0 Branch Prediction Accuracy: 82.5083% MPKI: 31.3359 Average ROB Occupancy at Mispredict: 13.2603
Branch type MPKI
BRANCH_DIRECT_JUMP: 1.06978
BRANCH_INDIRECT: 16.1898
BRANCH_CONDITIONAL: 10.2461
BRANCH_DIRECT_CALL: 1.92883
BRANCH_INDIRECT_CALL: 0.51639
BRANCH_RETURN: 1.38511

Instructions large pages: 0
Instructions small pages: 10539
Large page distribution for instructions: 0%

Data large pages: 0
Data small pages: 9572
Large page distribution for data: 0%

cpu0_L1I TOTAL       ACCESS:   35191789  HIT:   27374308  MISS:    7817481  iACCESS:   35191789  iHIT:   27374308  iMISS:    7817481  dACCESS:          0  dHIT:          0  dMISS:          0  itACCESS:          0  itHIT:          0  itMISS:          0  dtACCESS:          0  dtHIT:          0  dtMISS:          0
cpu0_L1I LOAD         ACCESS:   10321547  HIT:    8130869  MISS:    2190678  iACCESS:   10321547  iHIT:    8130869  iMISS:    2190678  dACCESS:          0  dHIT:          0  dMISS:          0  itACCESS:          0  itHIT:          0  itMISS:          0  dtACCESS:          0  dtHIT:          0  dtMISS:          0
cpu0_L1I RFO          ACCESS:          0  HIT:          0  MISS:          0  iACCESS:          0  iHIT:          0  iMISS:          0  dACCESS:          0  dHIT:          0  dMISS:          0  itACCESS:          0  itHIT:          0  itMISS:          0  dtACCESS:          0  dtHIT:          0  dtMISS:          0
cpu0_L1I PREFETCH     ACCESS:   24870242  HIT:   19243439  MISS:    5626803  iACCESS:   24870242  iHIT:   19243439  iMISS:    5626803  dACCESS:          0  dHIT:          0  dMISS:          0  itACCESS:          0  itHIT:          0  itMISS:          0  dtACCESS:          0  dtHIT:          0  dtMISS:          0
cpu0_L1I WRITE        ACCESS:          0  HIT:          0  MISS:          0  iACCESS:          0  iHIT:          0  iMISS:          0  dACCESS:          0  dHIT:          0  dMISS:          0  itACCESS:          0  itHIT:          0  itMISS:          0  dtACCESS:          0  dtHIT:          0  dtMISS:          0
cpu0_L1I TRANSLATION  ACCESS:          0  HIT:          0  MISS:          0  iACCESS:          0  iHIT:          0  iMISS:          0  dACCESS:          0  dHIT:          0  dMISS:          0  itACCESS:          0  itHIT:          0  itMISS:          0  dtACCESS:          0  dtHIT:          0  dtMISS:          0
cpu0_L1I PREFETCH  REQUESTED:   27403862  ISSUED:   27403862  CROSSED:          0  USEFUL:    1931782  USELESS:     626022
cpu0_L1I AVERAGE iMISS LATENCY: 12.9904 cycles
cpu0_L1I AVERAGE dMISS LATENCY: 0 cycles
cpu0_L1I AVERAGE itMISS LATENCY: 0 cycles
cpu0_L1I AVERAGE dtMISS LATENCY: 0 cycles
cpu0_L1I PAGE CROSSINGS (TLB HIT):         0 
cpu0_L1I PAGE CROSSINGS (TLB MISS):         0 
cpu0_L1I AVERAGE MISS LATENCY: 12.9904 cycles
cpu0_ITLB TOTAL       ACCESS:   29378131  HIT:   27444116  MISS:    1934015  iACCESS:   29378131  iHIT:   27444116  iMISS:    1934015  dACCESS:          0  dHIT:          0  dMISS:          0  itACCESS:          0  itHIT:          0  itMISS:          0  dtACCESS:          0  dtHIT:          0  dtMISS:          0
cpu0_ITLB LOAD         ACCESS:   29378131  HIT:   27444116  MISS:    1934015  iACCESS:   29378131  iHIT:   27444116  iMISS:    1934015  dACCESS:          0  dHIT:          0  dMISS:          0  itACCESS:          0  itHIT:          0  itMISS:          0  dtACCESS:          0  dtHIT:          0  dtMISS:          0
cpu0_ITLB RFO          ACCESS:          0  HIT:          0  MISS:          0  iACCESS:          0  iHIT:          0  iMISS:          0  dACCESS:          0  dHIT:          0  dMISS:          0  itACCESS:          0  itHIT:          0  itMISS:          0  dtACCESS:          0  dtHIT:          0  dtMISS:          0
cpu0_ITLB PREFETCH     ACCESS:          0  HIT:          0  MISS:          0  iACCESS:          0  iHIT:          0  iMISS:          0  dACCESS:          0  dHIT:          0  dMISS:          0  itACCESS:          0  itHIT:          0  itMISS:          0  dtACCESS:          0  dtHIT:          0  dtMISS:          0
cpu0_ITLB WRITE        ACCESS:          0  HIT:          0  MISS:          0  iACCESS:          0  iHIT:          0  iMISS:          0  dACCESS:          0  dHIT:          0  dMISS:          0  itACCESS:          0  itHIT:          0  itMISS:          0  dtACCESS:          0  dtHIT:          0  dtMISS:          0
cpu0_ITLB TRANSLATION  ACCESS:          0  HIT:          0  MISS:          0  iACCESS:          0  iHIT:          0  iMISS:          0  dACCESS:          0  dHIT:          0  dMISS:          0  itACCESS:          0  itHIT:          0  itMISS:          0  dtACCESS:          0  dtHIT:          0  dtMISS:          0
cpu0_ITLB PREFETCH  REQUESTED:          0  ISSUED:          0  CROSSED:          0  USEFUL:     316716  USELESS:      63552
cpu0_ITLB AVERAGE iMISS LATENCY: 5.16401 cycles
cpu0_ITLB AVERAGE dMISS LATENCY: 0 cycles
cpu0_ITLB AVERAGE itMISS LATENCY: 0 cycles
cpu0_ITLB AVERAGE dtMISS LATENCY: 0 cycles
cpu0_ITLB PAGE CROSSINGS (TLB HIT):         0 
cpu0_ITLB PAGE CROSSINGS (TLB MISS):         0 
cpu0_ITLB AVERAGE MISS LATENCY: 5.16401 cycles
cpu0_DTLB TOTAL       ACCESS:   27887697  HIT:   26023108  MISS:    1864589  iACCESS:          0  iHIT:          0  iMISS:          0  dACCESS:   27887697  dHIT:   26023108  dMISS:    1864589  itACCESS:          0  itHIT:          0  itMISS:          0  dtACCESS:          0  dtHIT:          0  dtMISS:          0
cpu0_DTLB LOAD         ACCESS:   27887697  HIT:   26023108  MISS:    1864589  iACCESS:          0  iHIT:          0  iMISS:          0  dACCESS:   27887697  dHIT:   26023108  dMISS:    1864589  itACCESS:          0  itHIT:          0  itMISS:          0  dtACCESS:          0  dtHIT:          0  dtMISS:          0
cpu0_DTLB RFO          ACCESS:          0  HIT:          0  MISS:          0  iACCESS:          0  iHIT:          0  iMISS:          0  dACCESS:          0  dHIT:          0  dMISS:          0  itACCESS:          0  itHIT:          0  itMISS:          0  dtACCESS:          0  dtHIT:          0  dtMISS:          0
cpu0_DTLB PREFETCH     ACCESS:          0  HIT:          0  MISS:          0  iACCESS:          0  iHIT:          0  iMISS:          0  dACCESS:          0  dHIT:          0  dMISS:          0  itACCESS:          0  itHIT:          0  itMISS:          0  dtACCESS:          0  dtHIT:          0  dtMISS:          0
cpu0_DTLB WRITE        ACCESS:          0  HIT:          0  MISS:          0  iACCESS:          0  iHIT:          0  iMISS:          0  dACCESS:          0  dHIT:          0  dMISS:          0  itACCESS:          0  itHIT:          0  itMISS:          0  dtACCESS:          0  dtHIT:          0  dtMISS:          0
cpu0_DTLB TRANSLATION  ACCESS:          0  HIT:          0  MISS:          0  iACCESS:          0  iHIT:          0  iMISS:          0  dACCESS:          0  dHIT:          0  dMISS:          0  itACCESS:          0  itHIT:          0  itMISS:          0  dtACCESS:          0  dtHIT:          0  dtMISS:          0
cpu0_DTLB PREFETCH  REQUESTED:          0  ISSUED:          0  CROSSED:          0  USEFUL:          0  USELESS:          0
cpu0_DTLB AVERAGE iMISS LATENCY: 0 cycles
cpu0_DTLB AVERAGE dMISS LATENCY: 16.1944 cycles
cpu0_DTLB AVERAGE itMISS LATENCY: 0 cycles
cpu0_DTLB AVERAGE dtMISS LATENCY: 0 cycles
cpu0_DTLB PAGE CROSSINGS (TLB HIT):         0 
cpu0_DTLB PAGE CROSSINGS (TLB MISS):         0 
cpu0_DTLB AVERAGE MISS LATENCY: 16.1944 cycles
cpu0_STLB TOTAL       ACCESS:    1526540  HIT:    1355015  MISS:     171525  iACCESS:     380272  iHIT:     320600  iMISS:      59672  dACCESS:    1146268  dHIT:    1034415  dMISS:     111853  itACCESS:          0  itHIT:          0  itMISS:          0  dtACCESS:          0  dtHIT:          0  dtMISS:          0
cpu0_STLB LOAD         ACCESS:    1526540  HIT:    1355015  MISS:     171525  iACCESS:     380272  iHIT:     320600  iMISS:      59672  dACCESS:    1146268  dHIT:    1034415  dMISS:     111853  itACCESS:          0  itHIT:          0  itMISS:          0  dtACCESS:          0  dtHIT:          0  dtMISS:          0
cpu0_STLB RFO          ACCESS:          0  HIT:          0  MISS:          0  iACCESS:          0  iHIT:          0  iMISS:          0  dACCESS:          0  dHIT:          0  dMISS:          0  itACCESS:          0  itHIT:          0  itMISS:          0  dtACCESS:          0  dtHIT:          0  dtMISS:          0
cpu0_STLB PREFETCH     ACCESS:          0  HIT:          0  MISS:          0  iACCESS:          0  iHIT:          0  iMISS:          0  dACCESS:          0  dHIT:          0  dMISS:          0  itACCESS:          0  itHIT:          0  itMISS:          0  dtACCESS:          0  dtHIT:          0  dtMISS:          0
cpu0_STLB WRITE        ACCESS:          0  HIT:          0  MISS:          0  iACCESS:          0  iHIT:          0  iMISS:          0  dACCESS:          0  dHIT:          0  dMISS:          0  itACCESS:          0  itHIT:          0  itMISS:          0  dtACCESS:          0  dtHIT:          0  dtMISS:          0
cpu0_STLB TRANSLATION  ACCESS:          0  HIT:          0  MISS:          0  iACCESS:          0  iHIT:          0  iMISS:          0  dACCESS:          0  dHIT:          0  dMISS:          0  itACCESS:          0  itHIT:          0  itMISS:          0  dtACCESS:          0  dtHIT:          0  dtMISS:          0
cpu0_STLB PREFETCH  REQUESTED:          0  ISSUED:          0  CROSSED:          0  USEFUL:          0  USELESS:          0
cpu0_STLB AVERAGE iMISS LATENCY: 40.702 cycles
cpu0_STLB AVERAGE dMISS LATENCY: 122.602 cycles
cpu0_STLB AVERAGE itMISS LATENCY: 0 cycles
cpu0_STLB AVERAGE dtMISS LATENCY: 0 cycles
cpu0_STLB PAGE CROSSINGS (TLB HIT):         0 
cpu0_STLB PAGE CROSSINGS (TLB MISS):         0 
cpu0_STLB AVERAGE MISS LATENCY: 163.304 cycles
cpu0_L1D TOTAL       ACCESS:   41676522  HIT:   38174766  MISS:    3501756  iACCESS:          0  iHIT:          0  iMISS:          0  dACCESS:   41439074  dHIT:   38154423  dMISS:    3284651  itACCESS:      64503  itHIT:       9193  itMISS:      55310  dtACCESS:     172945  dtHIT:      11150  dtMISS:     161795
cpu0_L1D LOAD         ACCESS:   19108818  HIT:   17615514  MISS:    1493304  iACCESS:          0  iHIT:          0  iMISS:          0  dACCESS:   19108818  dHIT:   17615514  dMISS:    1493304  itACCESS:          0  itHIT:          0  itMISS:          0  dtACCESS:          0  dtHIT:          0  dtMISS:          0
cpu0_L1D RFO          ACCESS:          0  HIT:          0  MISS:          0  iACCESS:          0  iHIT:          0  iMISS:          0  dACCESS:          0  dHIT:          0  dMISS:          0  itACCESS:          0  itHIT:          0  itMISS:          0  dtACCESS:          0  dtHIT:          0  dtMISS:          0
cpu0_L1D PREFETCH     ACCESS:   12136493  HIT:   10780757  MISS:    1355736  iACCESS:          0  iHIT:          0  iMISS:          0  dACCESS:   12136493  dHIT:   10780757  dMISS:    1355736  itACCESS:          0  itHIT:          0  itMISS:          0  dtACCESS:          0  dtHIT:          0  dtMISS:          0
cpu0_L1D WRITE        ACCESS:   10193763  HIT:    9758152  MISS:     435611  iACCESS:          0  iHIT:          0  iMISS:          0  dACCESS:   10193763  dHIT:    9758152  dMISS:     435611  itACCESS:          0  itHIT:          0  itMISS:          0  dtACCESS:          0  dtHIT:          0  dtMISS:          0
cpu0_L1D TRANSLATION  ACCESS:     237448  HIT:      20343  MISS:     217105  iACCESS:          0  iHIT:          0  iMISS:          0  dACCESS:          0  dHIT:          0  dMISS:          0  itACCESS:      64503  itHIT:       9193  itMISS:      55310  dtACCESS:     172945  dtHIT:      11150  dtMISS:     161795
cpu0_L1D PREFETCH  REQUESTED:   19108818  ISSUED:   16887575  CROSSED:          0  USEFUL:     306546  USELESS:     701257
cpu0_L1D AVERAGE iMISS LATENCY: 0 cycles
cpu0_L1D AVERAGE dMISS LATENCY: 33.4626 cycles
cpu0_L1D AVERAGE itMISS LATENCY: 1.84663 cycles
cpu0_L1D AVERAGE dtMISS LATENCY: 5.32852 cycles
cpu0_L1D PAGE CROSSINGS (TLB HIT):         0 
cpu0_L1D PAGE CROSSINGS (TLB MISS):         0 
cpu0_L1D AVERAGE MISS LATENCY: 40.6377 cycles
cpu0_L2C TOTAL       ACCESS:    7006199  HIT:    3985342  MISS:    3020857  iACCESS:    3302477  iHIT:    2184012  iMISS:    1118465  dACCESS:    3501360  dHIT:    1772347  dMISS:    1729013  itACCESS:      55220  itHIT:       9940  itMISS:      45280  dtACCESS:     147142  dtHIT:      19043  dtMISS:     128099
cpu0_L2C LOAD         ACCESS:    1711576  HIT:    1012439  MISS:     699137  iACCESS:     783422  iHIT:     546867  iMISS:     236555  dACCESS:     928154  dHIT:     465572  dMISS:     462582  itACCESS:          0  itHIT:          0  itMISS:          0  dtACCESS:          0  dtHIT:          0  dtMISS:          0
cpu0_L2C RFO          ACCESS:     158296  HIT:      70817  MISS:      87479  iACCESS:          0  iHIT:          0  iMISS:          0  dACCESS:     158296  dHIT:      70817  dMISS:      87479  itACCESS:          0  itHIT:          0  itMISS:          0  dtACCESS:          0  dtHIT:          0  dtMISS:          0
cpu0_L2C PREFETCH     ACCESS:    4653816  HIT:    2594079  MISS:    2059737  iACCESS:    2519055  iHIT:    1637145  iMISS:     881910  dACCESS:    2134761  dHIT:     956934  dMISS:    1177827  itACCESS:          0  itHIT:          0  itMISS:          0  dtACCESS:          0  dtHIT:          0  dtMISS:          0
cpu0_L2C WRITE        ACCESS:     280149  HIT:     279024  MISS:       1125  iACCESS:          0  iHIT:          0  iMISS:          0  dACCESS:     280149  dHIT:     279024  dMISS:       1125  itACCESS:          0  itHIT:          0  itMISS:          0  dtACCESS:          0  dtHIT:          0  dtMISS:          0
cpu0_L2C TRANSLATION  ACCESS:     202362  HIT:      28983  MISS:     173379  iACCESS:          0  iHIT:          0  iMISS:          0  dACCESS:          0  dHIT:          0  dMISS:          0  itACCESS:      55220  itHIT:       9940  itMISS:      45280  dtACCESS:     147142  dtHIT:      19043  dtMISS:     128099
cpu0_L2C PREFETCH  REQUESTED:    1391644  ISSUED:    1391644  CROSSED:          0  USEFUL:     336690  USELESS:     243507
cpu0_L2C AVERAGE iMISS LATENCY: 23.565 cycles
cpu0_L2C AVERAGE dMISS LATENCY: 45.9603 cycles
cpu0_L2C AVERAGE itMISS LATENCY: 1.96054 cycles
cpu0_L2C AVERAGE dtMISS LATENCY: 5.6921 cycles
cpu0_L2C PAGE CROSSINGS (TLB HIT):         0 
cpu0_L2C PAGE CROSSINGS (TLB MISS):         0 
cpu0_L2C AVERAGE MISS LATENCY: 77.1779 cycles
LLC TOTAL       ACCESS:    3040935  HIT:    1923716  MISS:    1117219  iACCESS:    1059619  iHIT:     714855  iMISS:     344764  dACCESS:    1807937  dHIT:    1145944  dMISS:     661993  itACCESS:      45280  itHIT:      15687  itMISS:      29593  dtACCESS:     128099  dtHIT:      47230  dtMISS:      80869
LLC LOAD         ACCESS:     697535  HIT:     454785  MISS:     242750  iACCESS:     235244  iHIT:     160426  iMISS:      74818  dACCESS:     462291  dHIT:     294359  dMISS:     167932  itACCESS:          0  itHIT:          0  itMISS:          0  dtACCESS:          0  dtHIT:          0  dtMISS:          0
LLC RFO          ACCESS:      87474  HIT:      47525  MISS:      39949  iACCESS:          0  iHIT:          0  iMISS:          0  dACCESS:      87474  dHIT:      47525  dMISS:      39949  itACCESS:          0  itHIT:          0  itMISS:          0  dtACCESS:          0  dtHIT:          0  dtMISS:          0
LLC PREFETCH     ACCESS:    1945188  HIT:    1227900  MISS:     717288  iACCESS:     824375  iHIT:     554429  iMISS:     269946  dACCESS:    1120813  dHIT:     673471  dMISS:     447342  itACCESS:          0  itHIT:          0  itMISS:          0  dtACCESS:          0  dtHIT:          0  dtMISS:          0
LLC WRITE        ACCESS:     137359  HIT:     130589  MISS:       6770  iACCESS:          0  iHIT:          0  iMISS:          0  dACCESS:     137359  dHIT:     130589  dMISS:       6770  itACCESS:          0  itHIT:          0  itMISS:          0  dtACCESS:          0  dtHIT:          0  dtMISS:          0
LLC TRANSLATION  ACCESS:     173379  HIT:      62917  MISS:     110462  iACCESS:          0  iHIT:          0  iMISS:          0  dACCESS:          0  dHIT:          0  dMISS:          0  itACCESS:      45280  itHIT:      15687  itMISS:      29593  dtACCESS:     128099  dtHIT:      47230  dtMISS:      80869
LLC PREFETCH  REQUESTED:          0  ISSUED:          0  CROSSED:          0  USEFUL:          0  USELESS:          0
LLC AVERAGE iMISS LATENCY: 45.2801 cycles
LLC AVERAGE dMISS LATENCY: 95.4394 cycles
LLC AVERAGE itMISS LATENCY: 4.50633 cycles
LLC AVERAGE dtMISS LATENCY: 13.1467 cycles
LLC PAGE CROSSINGS (TLB HIT):         0 
LLC PAGE CROSSINGS (TLB MISS):         0 
LLC AVERAGE MISS LATENCY: 158.373 cycles

PageTableWalker TOTAL       ACCESS:      87209  
PageTableWalker AVERAGE LATENCY: 5.19495 cycles
PageTableWalker TOTAL LATENCY: 453046 cycles

DRAM Statistics
Channel 0
 RQ ROW_BUFFER_HIT:     293563
  ROW_BUFFER_MISS:     816775
 AVG DBUS CONGESTED CYCLE:    3.61949
 WQ ROW_BUFFER_HIT:      22038
  ROW_BUFFER_MISS:      20997  FULL:          0

