last_page:0x200000000000000
VMEM_RES_CAP:0x100000
PAGE_SIZE:4096
LOG2_PAGE_SIZE:12
LOG2_PAGE_TABLE_SIZE:9
page_table_levels:5
WARNING: physical memory size is smaller than virtual memory size
FDiP enabled with aggresivity 16

*** ChampSim Multicore Out-of-Order Simulator ***

Warmup Instructions: 50000000
Simulation Instructions: 100000000
Number of CPUs: 1
Small page size: 4096
Large page size: 2097152

CPU 0 Bimodal branch predictor
Basic BTB sets: 1024 ways: 8 indirect buffer size: 4096 RAS size: 64
Instruction page size distrubution: 0
Loading instruction page size distribution from /home/bsc/bsc018186/scratch/itp_asplos25_AE/dump/srv506_ap.pdst
Data page size distrubution: 0
Loading data page size distribution from /home/bsc/bsc018186/scratch/itp_asplos25_AE/dump/srv506_ap.pdst
cpu0_L2C IP-based stride prefetcher
cpu0_L1D next line prefetcher
cpu0_STLB using iTP with max lru@8
cpu0_STLB using iTP with instr@0 and data@2
Init sat counter with 3 bits (max:50).
cpu0_L1I next line prefetcher
Off-chip DRAM Size: 4 GiB Channels: 1 Width: 64-bit Data Rate: 3200 MT/s
Heartbeat CPU 0 instructions: 10000003 cycles: 2500118 heartbeat IPC: 3.99982 cumulative IPC: 3.99982 (Simulation time: 0 hr 0 min 37 sec) 
Heartbeat CPU 0 instructions: 20000001 cycles: 5000146 heartbeat IPC: 3.99996 cumulative IPC: 3.99989 (Simulation time: 0 hr 1 min 17 sec) 
Heartbeat CPU 0 instructions: 30000003 cycles: 7500161 heartbeat IPC: 3.99998 cumulative IPC: 3.99992 (Simulation time: 0 hr 1 min 57 sec) 
Heartbeat CPU 0 instructions: 40000000 cycles: 10000183 heartbeat IPC: 3.99997 cumulative IPC: 3.99993 (Simulation time: 0 hr 2 min 39 sec) 
Heartbeat CPU 0 instructions: 50000000 cycles: 12500216 heartbeat IPC: 3.99995 cumulative IPC: 3.99994 (Simulation time: 0 hr 3 min 19 sec) 
Warmup finished CPU 0 instructions: 50000000 cycles: 12500217 cumulative IPC: 3.99994 (Simulation time: 0 hr 3 min 19 sec) 

Warmup complete CPU 0 instructions: 50000000 cycles: 12500217 (Simulation time: 0 hr 3 min 19 sec) 

Heartbeat CPU 0 instructions: 60000003 cycles: 27034425 heartbeat IPC: 0.688033 cumulative IPC: 0.688033 (Simulation time: 0 hr 4 min 23 sec) 
Heartbeat CPU 0 instructions: 70000001 cycles: 41520019 heartbeat IPC: 0.690341 cumulative IPC: 0.689185 (Simulation time: 0 hr 5 min 27 sec) 
Heartbeat CPU 0 instructions: 80000001 cycles: 56968030 heartbeat IPC: 0.647333 cumulative IPC: 0.674646 (Simulation time: 0 hr 6 min 33 sec) 
Heartbeat CPU 0 instructions: 90000001 cycles: 71201663 heartbeat IPC: 0.702562 cumulative IPC: 0.681415 (Simulation time: 0 hr 7 min 38 sec) 
Heartbeat CPU 0 instructions: 100000003 cycles: 85632059 heartbeat IPC: 0.692982 cumulative IPC: 0.683697 (Simulation time: 0 hr 8 min 44 sec) 
*** Reached end of trace: /gpfs/projects/bsc18/MN4/bsc18/romol/ChampSim/traces/qualcomm_srv/srv506_ap.champsimtrace.xz
Heartbeat CPU 0 instructions: 110000001 cycles: 100260458 heartbeat IPC: 0.683602 cumulative IPC: 0.683681 (Simulation time: 0 hr 9 min 50 sec) 
Heartbeat CPU 0 instructions: 120000003 cycles: 114440135 heartbeat IPC: 0.705235 cumulative IPC: 0.68668 (Simulation time: 0 hr 10 min 56 sec) 
Heartbeat CPU 0 instructions: 130000000 cycles: 128759165 heartbeat IPC: 0.698372 cumulative IPC: 0.68812 (Simulation time: 0 hr 12 min 2 sec) 
Heartbeat CPU 0 instructions: 140000002 cycles: 142449030 heartbeat IPC: 0.730468 cumulative IPC: 0.692581 (Simulation time: 0 hr 13 min 6 sec) 
Heartbeat CPU 0 instructions: 150000000 cycles: 157251482 heartbeat IPC: 0.675564 cumulative IPC: 0.690841 (Simulation time: 0 hr 14 min 13 sec) 
Simulation finished CPU 0 instructions: 100000000 cycles: 144751266 cumulative IPC: 0.690841 (Simulation time: 0 hr 14 min 13 sec) 

Simulation complete CPU 0 instructions: 100000000 cycles: 144751266 (Simulation time: 0 hr 14 min 13 sec) 


ChampSim completed all CPUs

Saving instructions large page distribution to /home/bsc/bsc018186/scratch/itp_asplos25_AE/dump/srv506_ap.pdst...
Saving data large page distribution to /home/bsc/bsc018186/scratch/itp_asplos25_AE/dump/srv506_ap.pdst...
=== Simulation ===
CPU 0 runs /gpfs/projects/bsc18/MN4/bsc18/romol/ChampSim/traces/qualcomm_srv/srv506_ap.champsimtrace.xz

Region of Interest Statistics

CPU 0 cumulative IPC: 0.690841 instructions: 100000000 cycles: 144751266
CPU 0 Branch Prediction Accuracy: 82.859% MPKI: 30.6843 Average ROB Occupancy at Mispredict: 12.1478
Branch type MPKI
BRANCH_DIRECT_JUMP: 1.03521
BRANCH_INDIRECT: 15.6921
BRANCH_CONDITIONAL: 10.1968
BRANCH_DIRECT_CALL: 1.88253
BRANCH_INDIRECT_CALL: 0.530291
BRANCH_RETURN: 1.34748

Instructions large pages: 0
Instructions small pages: 1084
Large page distribution for instructions: 0%

Data large pages: 0
Data small pages: 9900
Large page distribution for data: 0%

cpu0_L1I TOTAL       ACCESS:   35520486  HIT:   27101977  MISS:    8418509  iACCESS:   35520486  iHIT:   27101977  iMISS:    8418509  dACCESS:          0  dHIT:          0  dMISS:          0  itACCESS:          0  itHIT:          0  itMISS:          0  dtACCESS:          0  dtHIT:          0  dtMISS:          0
cpu0_L1I LOAD         ACCESS:   10397734  HIT:    8043694  MISS:    2354040  iACCESS:   10397734  iHIT:    8043694  iMISS:    2354040  dACCESS:          0  dHIT:          0  dMISS:          0  itACCESS:          0  itHIT:          0  itMISS:          0  dtACCESS:          0  dtHIT:          0  dtMISS:          0
cpu0_L1I RFO          ACCESS:          0  HIT:          0  MISS:          0  iACCESS:          0  iHIT:          0  iMISS:          0  dACCESS:          0  dHIT:          0  dMISS:          0  itACCESS:          0  itHIT:          0  itMISS:          0  dtACCESS:          0  dtHIT:          0  dtMISS:          0
cpu0_L1I PREFETCH     ACCESS:   25122752  HIT:   19058283  MISS:    6064469  iACCESS:   25122752  iHIT:   19058283  iMISS:    6064469  dACCESS:          0  dHIT:          0  dMISS:          0  itACCESS:          0  itHIT:          0  itMISS:          0  dtACCESS:          0  dtHIT:          0  dtMISS:          0
cpu0_L1I WRITE        ACCESS:          0  HIT:          0  MISS:          0  iACCESS:          0  iHIT:          0  iMISS:          0  dACCESS:          0  dHIT:          0  dMISS:          0  itACCESS:          0  itHIT:          0  itMISS:          0  dtACCESS:          0  dtHIT:          0  dtMISS:          0
cpu0_L1I TRANSLATION  ACCESS:          0  HIT:          0  MISS:          0  iACCESS:          0  iHIT:          0  iMISS:          0  dACCESS:          0  dHIT:          0  dMISS:          0  itACCESS:          0  itHIT:          0  itMISS:          0  dtACCESS:          0  dtHIT:          0  dtMISS:          0
cpu0_L1I PREFETCH  REQUESTED:   27437626  ISSUED:   27435417  CROSSED:          0  USEFUL:    1943799  USELESS:     630016
cpu0_L1I AVERAGE iMISS LATENCY: 13.6049 cycles
cpu0_L1I AVERAGE dMISS LATENCY: 0 cycles
cpu0_L1I AVERAGE itMISS LATENCY: 0 cycles
cpu0_L1I AVERAGE dtMISS LATENCY: 0 cycles
cpu0_L1I PAGE CROSSINGS (TLB HIT):         0 
cpu0_L1I PAGE CROSSINGS (TLB MISS):         0 
cpu0_L1I AVERAGE MISS LATENCY: 13.6049 cycles
cpu0_ITLB TOTAL       ACCESS:   29400142  HIT:   27469375  MISS:    1930767  iACCESS:   29400142  iHIT:   27469375  iMISS:    1930767  dACCESS:          0  dHIT:          0  dMISS:          0  itACCESS:          0  itHIT:          0  itMISS:          0  dtACCESS:          0  dtHIT:          0  dtMISS:          0
cpu0_ITLB LOAD         ACCESS:   29400142  HIT:   27469375  MISS:    1930767  iACCESS:   29400142  iHIT:   27469375  iMISS:    1930767  dACCESS:          0  dHIT:          0  dMISS:          0  itACCESS:          0  itHIT:          0  itMISS:          0  dtACCESS:          0  dtHIT:          0  dtMISS:          0
cpu0_ITLB RFO          ACCESS:          0  HIT:          0  MISS:          0  iACCESS:          0  iHIT:          0  iMISS:          0  dACCESS:          0  dHIT:          0  dMISS:          0  itACCESS:          0  itHIT:          0  itMISS:          0  dtACCESS:          0  dtHIT:          0  dtMISS:          0
cpu0_ITLB PREFETCH     ACCESS:          0  HIT:          0  MISS:          0  iACCESS:          0  iHIT:          0  iMISS:          0  dACCESS:          0  dHIT:          0  dMISS:          0  itACCESS:          0  itHIT:          0  itMISS:          0  dtACCESS:          0  dtHIT:          0  dtMISS:          0
cpu0_ITLB WRITE        ACCESS:          0  HIT:          0  MISS:          0  iACCESS:          0  iHIT:          0  iMISS:          0  dACCESS:          0  dHIT:          0  dMISS:          0  itACCESS:          0  itHIT:          0  itMISS:          0  dtACCESS:          0  dtHIT:          0  dtMISS:          0
cpu0_ITLB TRANSLATION  ACCESS:          0  HIT:          0  MISS:          0  iACCESS:          0  iHIT:          0  iMISS:          0  dACCESS:          0  dHIT:          0  dMISS:          0  itACCESS:          0  itHIT:          0  itMISS:          0  dtACCESS:          0  dtHIT:          0  dtMISS:          0
cpu0_ITLB PREFETCH  REQUESTED:          0  ISSUED:          0  CROSSED:          0  USEFUL:     317319  USELESS:      64005
cpu0_ITLB AVERAGE iMISS LATENCY: 2.04338 cycles
cpu0_ITLB AVERAGE dMISS LATENCY: 0 cycles
cpu0_ITLB AVERAGE itMISS LATENCY: 0 cycles
cpu0_ITLB AVERAGE dtMISS LATENCY: 0 cycles
cpu0_ITLB PAGE CROSSINGS (TLB HIT):         0 
cpu0_ITLB PAGE CROSSINGS (TLB MISS):         0 
cpu0_ITLB AVERAGE MISS LATENCY: 2.04338 cycles
cpu0_DTLB TOTAL       ACCESS:   27763327  HIT:   25725533  MISS:    2037794  iACCESS:          0  iHIT:          0  iMISS:          0  dACCESS:   27763327  dHIT:   25725533  dMISS:    2037794  itACCESS:          0  itHIT:          0  itMISS:          0  dtACCESS:          0  dtHIT:          0  dtMISS:          0
cpu0_DTLB LOAD         ACCESS:   27763327  HIT:   25725533  MISS:    2037794  iACCESS:          0  iHIT:          0  iMISS:          0  dACCESS:   27763327  dHIT:   25725533  dMISS:    2037794  itACCESS:          0  itHIT:          0  itMISS:          0  dtACCESS:          0  dtHIT:          0  dtMISS:          0
cpu0_DTLB RFO          ACCESS:          0  HIT:          0  MISS:          0  iACCESS:          0  iHIT:          0  iMISS:          0  dACCESS:          0  dHIT:          0  dMISS:          0  itACCESS:          0  itHIT:          0  itMISS:          0  dtACCESS:          0  dtHIT:          0  dtMISS:          0
cpu0_DTLB PREFETCH     ACCESS:          0  HIT:          0  MISS:          0  iACCESS:          0  iHIT:          0  iMISS:          0  dACCESS:          0  dHIT:          0  dMISS:          0  itACCESS:          0  itHIT:          0  itMISS:          0  dtACCESS:          0  dtHIT:          0  dtMISS:          0
cpu0_DTLB WRITE        ACCESS:          0  HIT:          0  MISS:          0  iACCESS:          0  iHIT:          0  iMISS:          0  dACCESS:          0  dHIT:          0  dMISS:          0  itACCESS:          0  itHIT:          0  itMISS:          0  dtACCESS:          0  dtHIT:          0  dtMISS:          0
cpu0_DTLB TRANSLATION  ACCESS:          0  HIT:          0  MISS:          0  iACCESS:          0  iHIT:          0  iMISS:          0  dACCESS:          0  dHIT:          0  dMISS:          0  itACCESS:          0  itHIT:          0  itMISS:          0  dtACCESS:          0  dtHIT:          0  dtMISS:          0
cpu0_DTLB PREFETCH  REQUESTED:          0  ISSUED:          0  CROSSED:          0  USEFUL:          0  USELESS:          0
cpu0_DTLB AVERAGE iMISS LATENCY: 0 cycles
cpu0_DTLB AVERAGE dMISS LATENCY: 11.6772 cycles
cpu0_DTLB AVERAGE itMISS LATENCY: 0 cycles
cpu0_DTLB AVERAGE dtMISS LATENCY: 0 cycles
cpu0_DTLB PAGE CROSSINGS (TLB HIT):         0 
cpu0_DTLB PAGE CROSSINGS (TLB MISS):         0 
cpu0_DTLB AVERAGE MISS LATENCY: 11.6772 cycles
cpu0_STLB TOTAL       ACCESS:    1629053  HIT:    1481428  MISS:     147625  iACCESS:     381354  iHIT:     371663  iMISS:       9691  dACCESS:    1247699  dHIT:    1109765  dMISS:     137934  itACCESS:          0  itHIT:          0  itMISS:          0  dtACCESS:          0  dtHIT:          0  dtMISS:          0
cpu0_STLB LOAD         ACCESS:    1629053  HIT:    1481428  MISS:     147625  iACCESS:     381354  iHIT:     371663  iMISS:       9691  dACCESS:    1247699  dHIT:    1109765  dMISS:     137934  itACCESS:          0  itHIT:          0  itMISS:          0  dtACCESS:          0  dtHIT:          0  dtMISS:          0
cpu0_STLB RFO          ACCESS:          0  HIT:          0  MISS:          0  iACCESS:          0  iHIT:          0  iMISS:          0  dACCESS:          0  dHIT:          0  dMISS:          0  itACCESS:          0  itHIT:          0  itMISS:          0  dtACCESS:          0  dtHIT:          0  dtMISS:          0
cpu0_STLB PREFETCH     ACCESS:          0  HIT:          0  MISS:          0  iACCESS:          0  iHIT:          0  iMISS:          0  dACCESS:          0  dHIT:          0  dMISS:          0  itACCESS:          0  itHIT:          0  itMISS:          0  dtACCESS:          0  dtHIT:          0  dtMISS:          0
cpu0_STLB WRITE        ACCESS:          0  HIT:          0  MISS:          0  iACCESS:          0  iHIT:          0  iMISS:          0  dACCESS:          0  dHIT:          0  dMISS:          0  itACCESS:          0  itHIT:          0  itMISS:          0  dtACCESS:          0  dtHIT:          0  dtMISS:          0
cpu0_STLB TRANSLATION  ACCESS:          0  HIT:          0  MISS:          0  iACCESS:          0  iHIT:          0  iMISS:          0  dACCESS:          0  dHIT:          0  dMISS:          0  itACCESS:          0  itHIT:          0  itMISS:          0  dtACCESS:          0  dtHIT:          0  dtMISS:          0
cpu0_STLB PREFETCH  REQUESTED:          0  ISSUED:          0  CROSSED:          0  USEFUL:          0  USELESS:          0
cpu0_STLB AVERAGE iMISS LATENCY: 6.68406 cycles
cpu0_STLB AVERAGE dMISS LATENCY: 93.7214 cycles
cpu0_STLB AVERAGE itMISS LATENCY: 0 cycles
cpu0_STLB AVERAGE dtMISS LATENCY: 0 cycles
cpu0_STLB PAGE CROSSINGS (TLB HIT):         0 
cpu0_STLB PAGE CROSSINGS (TLB MISS):         0 
cpu0_STLB AVERAGE MISS LATENCY: 100.406 cycles
cpu0_L1D TOTAL       ACCESS:   41571344  HIT:   38040280  MISS:    3531064  iACCESS:          0  iHIT:          0  iMISS:          0  dACCESS:   41353420  dHIT:   38026780  dMISS:    3326640  itACCESS:      11371  itHIT:       1205  itMISS:      10166  dtACCESS:     206553  dtHIT:      12295  dtMISS:     194258
cpu0_L1D LOAD         ACCESS:   18974088  HIT:   17453629  MISS:    1520459  iACCESS:          0  iHIT:          0  iMISS:          0  dACCESS:   18974088  dHIT:   17453629  dMISS:    1520459  itACCESS:          0  itHIT:          0  itMISS:          0  dtACCESS:          0  dtHIT:          0  dtMISS:          0
cpu0_L1D RFO          ACCESS:          0  HIT:          0  MISS:          0  iACCESS:          0  iHIT:          0  iMISS:          0  dACCESS:          0  dHIT:          0  dMISS:          0  itACCESS:          0  itHIT:          0  itMISS:          0  dtACCESS:          0  dtHIT:          0  dtMISS:          0
cpu0_L1D PREFETCH     ACCESS:   12199194  HIT:   10819967  MISS:    1379227  iACCESS:          0  iHIT:          0  iMISS:          0  dACCESS:   12199194  dHIT:   10819967  dMISS:    1379227  itACCESS:          0  itHIT:          0  itMISS:          0  dtACCESS:          0  dtHIT:          0  dtMISS:          0
cpu0_L1D WRITE        ACCESS:   10180138  HIT:    9753184  MISS:     426954  iACCESS:          0  iHIT:          0  iMISS:          0  dACCESS:   10180138  dHIT:    9753184  dMISS:     426954  itACCESS:          0  itHIT:          0  itMISS:          0  dtACCESS:          0  dtHIT:          0  dtMISS:          0
cpu0_L1D TRANSLATION  ACCESS:     217924  HIT:      13500  MISS:     204424  iACCESS:          0  iHIT:          0  iMISS:          0  dACCESS:          0  dHIT:          0  dMISS:          0  itACCESS:      11371  itHIT:       1205  itMISS:      10166  dtACCESS:     206553  dtHIT:      12295  dtMISS:     194258
cpu0_L1D PREFETCH  REQUESTED:   18974088  ISSUED:   16988497  CROSSED:          0  USEFUL:     306095  USELESS:     700953
cpu0_L1D AVERAGE iMISS LATENCY: 0 cycles
cpu0_L1D AVERAGE dMISS LATENCY: 34.2978 cycles
cpu0_L1D AVERAGE itMISS LATENCY: 0.245719 cycles
cpu0_L1D AVERAGE dtMISS LATENCY: 3.16078 cycles
cpu0_L1D PAGE CROSSINGS (TLB HIT):         0 
cpu0_L1D PAGE CROSSINGS (TLB MISS):         0 
cpu0_L1D AVERAGE MISS LATENCY: 37.7043 cycles
cpu0_L2C TOTAL       ACCESS:    7009782  HIT:    1669034  MISS:    5340748  iACCESS:    3314318  iHIT:     872925  iMISS:    2441393  dACCESS:    3501483  dHIT:     695104  dMISS:    2806379  itACCESS:      10166  itHIT:       4643  itMISS:       5523  dtACCESS:     183815  dtHIT:      96362  dtMISS:      87453
cpu0_L2C LOAD         ACCESS:    1709139  HIT:     297112  MISS:    1412027  iACCESS:     778540  iHIT:     149433  iMISS:     629107  dACCESS:     930599  dHIT:     147679  dMISS:     782920  itACCESS:          0  itHIT:          0  itMISS:          0  dtACCESS:          0  dtHIT:          0  dtMISS:          0
cpu0_L2C RFO          ACCESS:     159089  HIT:      49618  MISS:     109471  iACCESS:          0  iHIT:          0  iMISS:          0  dACCESS:     159089  dHIT:      49618  dMISS:     109471  itACCESS:          0  itHIT:          0  itMISS:          0  dtACCESS:          0  dtHIT:          0  dtMISS:          0
cpu0_L2C PREFETCH     ACCESS:    4666488  HIT:    1090572  MISS:    3575916  iACCESS:    2535778  iHIT:     723492  iMISS:    1812286  dACCESS:    2130710  dHIT:     367080  dMISS:    1763630  itACCESS:          0  itHIT:          0  itMISS:          0  dtACCESS:          0  dtHIT:          0  dtMISS:          0
cpu0_L2C WRITE        ACCESS:     281085  HIT:     130727  MISS:     150358  iACCESS:          0  iHIT:          0  iMISS:          0  dACCESS:     281085  dHIT:     130727  dMISS:     150358  itACCESS:          0  itHIT:          0  itMISS:          0  dtACCESS:          0  dtHIT:          0  dtMISS:          0
cpu0_L2C TRANSLATION  ACCESS:     193981  HIT:     101005  MISS:      92976  iACCESS:          0  iHIT:          0  iMISS:          0  dACCESS:          0  dHIT:          0  dMISS:          0  itACCESS:      10166  itHIT:       4643  itMISS:       5523  dtACCESS:     183815  dtHIT:      96362  dtMISS:      87453
cpu0_L2C PREFETCH  REQUESTED:    1382497  ISSUED:    1382497  CROSSED:          0  USEFUL:     408072  USELESS:     377412
cpu0_L2C AVERAGE iMISS LATENCY: 15.6721 cycles
cpu0_L2C AVERAGE dMISS LATENCY: 26.422 cycles
cpu0_L2C AVERAGE itMISS LATENCY: 0.144255 cycles
cpu0_L2C AVERAGE dtMISS LATENCY: 1.76166 cycles
cpu0_L2C PAGE CROSSINGS (TLB HIT):         0 
cpu0_L2C PAGE CROSSINGS (TLB MISS):         0 
cpu0_L2C AVERAGE MISS LATENCY: 43.9999 cycles
LLC TOTAL       ACCESS:    5219789  HIT:    4355990  MISS:     863799  iACCESS:    2386514  iHIT:    2131785  iMISS:     254729  dACCESS:    2740299  dHIT:    2178515  dMISS:     561784  itACCESS:       5523  itHIT:       1733  itMISS:       3790  dtACCESS:      87453  dtHIT:      43957  dtMISS:      43496
LLC LOAD         ACCESS:    1409325  HIT:    1218178  MISS:     191147  iACCESS:     627608  iHIT:     574697  iMISS:      52911  dACCESS:     781717  dHIT:     643481  dMISS:     138236  itACCESS:          0  itHIT:          0  itMISS:          0  dtACCESS:          0  dtHIT:          0  dtMISS:          0
LLC RFO          ACCESS:     109465  HIT:      71692  MISS:      37773  iACCESS:          0  iHIT:          0  iMISS:          0  dACCESS:     109465  dHIT:      71692  dMISS:      37773  itACCESS:          0  itHIT:          0  itMISS:          0  dtACCESS:          0  dtHIT:          0  dtMISS:          0
LLC PREFETCH     ACCESS:    3467417  HIT:    2889156  MISS:     578261  iACCESS:    1758906  iHIT:    1557088  iMISS:     201818  dACCESS:    1708511  dHIT:    1332068  dMISS:     376443  itACCESS:          0  itHIT:          0  itMISS:          0  dtACCESS:          0  dtHIT:          0  dtMISS:          0
LLC WRITE        ACCESS:     140606  HIT:     131274  MISS:       9332  iACCESS:          0  iHIT:          0  iMISS:          0  dACCESS:     140606  dHIT:     131274  dMISS:       9332  itACCESS:          0  itHIT:          0  itMISS:          0  dtACCESS:          0  dtHIT:          0  dtMISS:          0
LLC TRANSLATION  ACCESS:      92976  HIT:      45690  MISS:      47286  iACCESS:          0  iHIT:          0  iMISS:          0  dACCESS:          0  dHIT:          0  dMISS:          0  itACCESS:       5523  itHIT:       1733  itMISS:       3790  dtACCESS:      87453  dtHIT:      43957  dtMISS:      43496
LLC PREFETCH  REQUESTED:          0  ISSUED:          0  CROSSED:          0  USEFUL:          0  USELESS:          0
LLC AVERAGE iMISS LATENCY: 43.5797 cycles
LLC AVERAGE dMISS LATENCY: 105.426 cycles
LLC AVERAGE itMISS LATENCY: 0.766404 cycles
LLC AVERAGE dtMISS LATENCY: 8.91901 cycles
LLC PAGE CROSSINGS (TLB HIT):         0 
LLC PAGE CROSSINGS (TLB MISS):         0 
LLC AVERAGE MISS LATENCY: 158.691 cycles

PageTableWalker TOTAL       ACCESS:      73332  
PageTableWalker AVERAGE LATENCY: 5.14228 cycles
PageTableWalker TOTAL LATENCY: 377093 cycles

DRAM Statistics
Channel 0
 RQ ROW_BUFFER_HIT:     232356
  ROW_BUFFER_MISS:     621374
 AVG DBUS CONGESTED CYCLE:    3.64035
 WQ ROW_BUFFER_HIT:      17132
  ROW_BUFFER_MISS:      22397  FULL:          0

