last_page:0x200000000000000
VMEM_RES_CAP:0x100000
PAGE_SIZE:4096
LOG2_PAGE_SIZE:12
LOG2_PAGE_TABLE_SIZE:9
page_table_levels:5
WARNING: physical memory size is smaller than virtual memory size
FDiP enabled with aggresivity 16

*** ChampSim Multicore Out-of-Order Simulator ***

Warmup Instructions: 50000000
Simulation Instructions: 100000000
Number of CPUs: 1
Small page size: 4096
Large page size: 2097152

CPU 0 Bimodal branch predictor
Basic BTB sets: 1024 ways: 8 indirect buffer size: 4096 RAS size: 64
Instruction page size distrubution: 0
Loading instruction page size distribution from /home/bsc/bsc018186/scratch/itp_asplos25_AE/dump/srv56_ap.pdst
Data page size distrubution: 0
Loading data page size distribution from /home/bsc/bsc018186/scratch/itp_asplos25_AE/dump/srv56_ap.pdst
cpu0_L2C IP-based stride prefetcher
cpu0_L2C is using PTP replacement policy:
	TLB_STRESS_THRESHOLD:0
	PTE_EVICTION_RATIO:0
cpu0_L1D next line prefetcher
cpu0_L1I next line prefetcher
Off-chip DRAM Size: 4 GiB Channels: 1 Width: 64-bit Data Rate: 3200 MT/s
Heartbeat CPU 0 instructions: 10000003 cycles: 2500266 heartbeat IPC: 3.99958 cumulative IPC: 3.99958 (Simulation time: 0 hr 0 min 38 sec) 
Heartbeat CPU 0 instructions: 20000002 cycles: 5000325 heartbeat IPC: 3.99991 cumulative IPC: 3.99975 (Simulation time: 0 hr 1 min 18 sec) 
Heartbeat CPU 0 instructions: 30000000 cycles: 7500371 heartbeat IPC: 3.99993 cumulative IPC: 3.99981 (Simulation time: 0 hr 1 min 58 sec) 
Heartbeat CPU 0 instructions: 40000002 cycles: 10000527 heartbeat IPC: 3.99976 cumulative IPC: 3.99979 (Simulation time: 0 hr 2 min 38 sec) 
Heartbeat CPU 0 instructions: 50000003 cycles: 12500642 heartbeat IPC: 3.99982 cumulative IPC: 3.9998 (Simulation time: 0 hr 3 min 19 sec) 
Warmup finished CPU 0 instructions: 50000003 cycles: 12500643 cumulative IPC: 3.9998 (Simulation time: 0 hr 3 min 19 sec) 

Warmup complete CPU 0 instructions: 50000003 cycles: 12500643 (Simulation time: 0 hr 3 min 19 sec) 

Heartbeat CPU 0 instructions: 60000000 cycles: 26922396 heartbeat IPC: 0.693397 cumulative IPC: 0.693397 (Simulation time: 0 hr 4 min 23 sec) 
Heartbeat CPU 0 instructions: 70000000 cycles: 41171760 heartbeat IPC: 0.701786 cumulative IPC: 0.697567 (Simulation time: 0 hr 5 min 26 sec) 
Heartbeat CPU 0 instructions: 80000004 cycles: 55884473 heartbeat IPC: 0.679685 cumulative IPC: 0.691502 (Simulation time: 0 hr 6 min 31 sec) 
Heartbeat CPU 0 instructions: 90000000 cycles: 70446726 heartbeat IPC: 0.686707 cumulative IPC: 0.690297 (Simulation time: 0 hr 7 min 35 sec) 
Heartbeat CPU 0 instructions: 100000001 cycles: 84324743 heartbeat IPC: 0.720565 cumulative IPC: 0.696146 (Simulation time: 0 hr 8 min 39 sec) 
*** Reached end of trace: /gpfs/projects/bsc18/MN4/bsc18/romol/ChampSim/traces/qualcomm_srv/srv56_ap.champsimtrace.xz
Heartbeat CPU 0 instructions: 110000001 cycles: 98684625 heartbeat IPC: 0.696385 cumulative IPC: 0.696186 (Simulation time: 0 hr 9 min 42 sec) 
Heartbeat CPU 0 instructions: 120000000 cycles: 112631754 heartbeat IPC: 0.716994 cumulative IPC: 0.699084 (Simulation time: 0 hr 10 min 44 sec) 
Heartbeat CPU 0 instructions: 130000000 cycles: 126538540 heartbeat IPC: 0.719074 cumulative IPC: 0.701522 (Simulation time: 0 hr 11 min 45 sec) 
Heartbeat CPU 0 instructions: 140000003 cycles: 142020956 heartbeat IPC: 0.645895 cumulative IPC: 0.694872 (Simulation time: 0 hr 12 min 47 sec) 
Heartbeat CPU 0 instructions: 150000002 cycles: 156220648 heartbeat IPC: 0.704241 cumulative IPC: 0.695798 (Simulation time: 0 hr 13 min 47 sec) 
Simulation finished CPU 0 instructions: 100000004 cycles: 143720007 cumulative IPC: 0.695798 (Simulation time: 0 hr 13 min 47 sec) 

Simulation complete CPU 0 instructions: 100000004 cycles: 143720007 (Simulation time: 0 hr 13 min 47 sec) 


ChampSim completed all CPUs

Saving instructions large page distribution to /home/bsc/bsc018186/scratch/itp_asplos25_AE/dump/srv56_ap.pdst...
Saving data large page distribution to /home/bsc/bsc018186/scratch/itp_asplos25_AE/dump/srv56_ap.pdst...
=== Simulation ===
CPU 0 runs /gpfs/projects/bsc18/MN4/bsc18/romol/ChampSim/traces/qualcomm_srv/srv56_ap.champsimtrace.xz

Region of Interest Statistics

CPU 0 cumulative IPC: 0.695798 instructions: 100000004 cycles: 143720007
CPU 0 Branch Prediction Accuracy: 82.5083% MPKI: 31.3359 Average ROB Occupancy at Mispredict: 12.8058
Branch type MPKI
BRANCH_DIRECT_JUMP: 1.06978
BRANCH_INDIRECT: 16.1898
BRANCH_CONDITIONAL: 10.2461
BRANCH_DIRECT_CALL: 1.92883
BRANCH_INDIRECT_CALL: 0.51639
BRANCH_RETURN: 1.38511

Instructions large pages: 0
Instructions small pages: 10539
Large page distribution for instructions: 0%

Data large pages: 0
Data small pages: 9572
Large page distribution for data: 0%

cpu0_L1I TOTAL       ACCESS:   35724209  HIT:   27251718  MISS:    8472491  iACCESS:   35724209  iHIT:   27251718  iMISS:    8472491  dACCESS:          0  dHIT:          0  dMISS:          0  itACCESS:          0  itHIT:          0  itMISS:          0  dtACCESS:          0  dtHIT:          0  dtMISS:          0
cpu0_L1I LOAD         ACCESS:   10462348  HIT:    8096315  MISS:    2366033  iACCESS:   10462348  iHIT:    8096315  iMISS:    2366033  dACCESS:          0  dHIT:          0  dMISS:          0  itACCESS:          0  itHIT:          0  itMISS:          0  dtACCESS:          0  dtHIT:          0  dtMISS:          0
cpu0_L1I RFO          ACCESS:          0  HIT:          0  MISS:          0  iACCESS:          0  iHIT:          0  iMISS:          0  dACCESS:          0  dHIT:          0  dMISS:          0  itACCESS:          0  itHIT:          0  itMISS:          0  dtACCESS:          0  dtHIT:          0  dtMISS:          0
cpu0_L1I PREFETCH     ACCESS:   25261861  HIT:   19155403  MISS:    6106458  iACCESS:   25261861  iHIT:   19155403  iMISS:    6106458  dACCESS:          0  dHIT:          0  dMISS:          0  itACCESS:          0  itHIT:          0  itMISS:          0  dtACCESS:          0  dtHIT:          0  dtMISS:          0
cpu0_L1I WRITE        ACCESS:          0  HIT:          0  MISS:          0  iACCESS:          0  iHIT:          0  iMISS:          0  dACCESS:          0  dHIT:          0  dMISS:          0  itACCESS:          0  itHIT:          0  itMISS:          0  dtACCESS:          0  dtHIT:          0  dtMISS:          0
cpu0_L1I TRANSLATION  ACCESS:          0  HIT:          0  MISS:          0  iACCESS:          0  iHIT:          0  iMISS:          0  dACCESS:          0  dHIT:          0  dMISS:          0  itACCESS:          0  itHIT:          0  itMISS:          0  dtACCESS:          0  dtHIT:          0  dtMISS:          0
cpu0_L1I PREFETCH  REQUESTED:   27538215  ISSUED:   27535384  CROSSED:          0  USEFUL:    1944176  USELESS:     625670
cpu0_L1I AVERAGE iMISS LATENCY: 13.8742 cycles
cpu0_L1I AVERAGE dMISS LATENCY: 0 cycles
cpu0_L1I AVERAGE itMISS LATENCY: 0 cycles
cpu0_L1I AVERAGE dtMISS LATENCY: 0 cycles
cpu0_L1I PAGE CROSSINGS (TLB HIT):         0 
cpu0_L1I PAGE CROSSINGS (TLB MISS):         0 
cpu0_L1I AVERAGE MISS LATENCY: 13.8742 cycles
cpu0_ITLB TOTAL       ACCESS:   29510466  HIT:   27590021  MISS:    1920445  iACCESS:   29510466  iHIT:   27590021  iMISS:    1920445  dACCESS:          0  dHIT:          0  dMISS:          0  itACCESS:          0  itHIT:          0  itMISS:          0  dtACCESS:          0  dtHIT:          0  dtMISS:          0
cpu0_ITLB LOAD         ACCESS:   29510466  HIT:   27590021  MISS:    1920445  iACCESS:   29510466  iHIT:   27590021  iMISS:    1920445  dACCESS:          0  dHIT:          0  dMISS:          0  itACCESS:          0  itHIT:          0  itMISS:          0  dtACCESS:          0  dtHIT:          0  dtMISS:          0
cpu0_ITLB RFO          ACCESS:          0  HIT:          0  MISS:          0  iACCESS:          0  iHIT:          0  iMISS:          0  dACCESS:          0  dHIT:          0  dMISS:          0  itACCESS:          0  itHIT:          0  itMISS:          0  dtACCESS:          0  dtHIT:          0  dtMISS:          0
cpu0_ITLB PREFETCH     ACCESS:          0  HIT:          0  MISS:          0  iACCESS:          0  iHIT:          0  iMISS:          0  dACCESS:          0  dHIT:          0  dMISS:          0  itACCESS:          0  itHIT:          0  itMISS:          0  dtACCESS:          0  dtHIT:          0  dtMISS:          0
cpu0_ITLB WRITE        ACCESS:          0  HIT:          0  MISS:          0  iACCESS:          0  iHIT:          0  iMISS:          0  dACCESS:          0  dHIT:          0  dMISS:          0  itACCESS:          0  itHIT:          0  itMISS:          0  dtACCESS:          0  dtHIT:          0  dtMISS:          0
cpu0_ITLB TRANSLATION  ACCESS:          0  HIT:          0  MISS:          0  iACCESS:          0  iHIT:          0  iMISS:          0  dACCESS:          0  dHIT:          0  dMISS:          0  itACCESS:          0  itHIT:          0  itMISS:          0  dtACCESS:          0  dtHIT:          0  dtMISS:          0
cpu0_ITLB PREFETCH  REQUESTED:          0  ISSUED:          0  CROSSED:          0  USEFUL:     317205  USELESS:      63059
cpu0_ITLB AVERAGE iMISS LATENCY: 2.80968 cycles
cpu0_ITLB AVERAGE dMISS LATENCY: 0 cycles
cpu0_ITLB AVERAGE itMISS LATENCY: 0 cycles
cpu0_ITLB AVERAGE dtMISS LATENCY: 0 cycles
cpu0_ITLB PAGE CROSSINGS (TLB HIT):         0 
cpu0_ITLB PAGE CROSSINGS (TLB MISS):         0 
cpu0_ITLB AVERAGE MISS LATENCY: 2.80968 cycles
cpu0_DTLB TOTAL       ACCESS:   27920400  HIT:   26074368  MISS:    1846032  iACCESS:          0  iHIT:          0  iMISS:          0  dACCESS:   27920400  dHIT:   26074368  dMISS:    1846032  itACCESS:          0  itHIT:          0  itMISS:          0  dtACCESS:          0  dtHIT:          0  dtMISS:          0
cpu0_DTLB LOAD         ACCESS:   27920400  HIT:   26074368  MISS:    1846032  iACCESS:          0  iHIT:          0  iMISS:          0  dACCESS:   27920400  dHIT:   26074368  dMISS:    1846032  itACCESS:          0  itHIT:          0  itMISS:          0  dtACCESS:          0  dtHIT:          0  dtMISS:          0
cpu0_DTLB RFO          ACCESS:          0  HIT:          0  MISS:          0  iACCESS:          0  iHIT:          0  iMISS:          0  dACCESS:          0  dHIT:          0  dMISS:          0  itACCESS:          0  itHIT:          0  itMISS:          0  dtACCESS:          0  dtHIT:          0  dtMISS:          0
cpu0_DTLB PREFETCH     ACCESS:          0  HIT:          0  MISS:          0  iACCESS:          0  iHIT:          0  iMISS:          0  dACCESS:          0  dHIT:          0  dMISS:          0  itACCESS:          0  itHIT:          0  itMISS:          0  dtACCESS:          0  dtHIT:          0  dtMISS:          0
cpu0_DTLB WRITE        ACCESS:          0  HIT:          0  MISS:          0  iACCESS:          0  iHIT:          0  iMISS:          0  dACCESS:          0  dHIT:          0  dMISS:          0  itACCESS:          0  itHIT:          0  itMISS:          0  dtACCESS:          0  dtHIT:          0  dtMISS:          0
cpu0_DTLB TRANSLATION  ACCESS:          0  HIT:          0  MISS:          0  iACCESS:          0  iHIT:          0  iMISS:          0  dACCESS:          0  dHIT:          0  dMISS:          0  itACCESS:          0  itHIT:          0  itMISS:          0  dtACCESS:          0  dtHIT:          0  dtMISS:          0
cpu0_DTLB PREFETCH  REQUESTED:          0  ISSUED:          0  CROSSED:          0  USEFUL:          0  USELESS:          0
cpu0_DTLB AVERAGE iMISS LATENCY: 0 cycles
cpu0_DTLB AVERAGE dMISS LATENCY: 9.59431 cycles
cpu0_DTLB AVERAGE itMISS LATENCY: 0 cycles
cpu0_DTLB AVERAGE dtMISS LATENCY: 0 cycles
cpu0_DTLB PAGE CROSSINGS (TLB HIT):         0 
cpu0_DTLB PAGE CROSSINGS (TLB MISS):         0 
cpu0_DTLB AVERAGE MISS LATENCY: 9.59431 cycles
cpu0_STLB TOTAL       ACCESS:    1526680  HIT:    1355149  MISS:     171531  iACCESS:     380284  iHIT:     320610  iMISS:      59674  dACCESS:    1146396  dHIT:    1034539  dMISS:     111857  itACCESS:          0  itHIT:          0  itMISS:          0  dtACCESS:          0  dtHIT:          0  dtMISS:          0
cpu0_STLB LOAD         ACCESS:    1526680  HIT:    1355149  MISS:     171531  iACCESS:     380284  iHIT:     320610  iMISS:      59674  dACCESS:    1146396  dHIT:    1034539  dMISS:     111857  itACCESS:          0  itHIT:          0  itMISS:          0  dtACCESS:          0  dtHIT:          0  dtMISS:          0
cpu0_STLB RFO          ACCESS:          0  HIT:          0  MISS:          0  iACCESS:          0  iHIT:          0  iMISS:          0  dACCESS:          0  dHIT:          0  dMISS:          0  itACCESS:          0  itHIT:          0  itMISS:          0  dtACCESS:          0  dtHIT:          0  dtMISS:          0
cpu0_STLB PREFETCH     ACCESS:          0  HIT:          0  MISS:          0  iACCESS:          0  iHIT:          0  iMISS:          0  dACCESS:          0  dHIT:          0  dMISS:          0  itACCESS:          0  itHIT:          0  itMISS:          0  dtACCESS:          0  dtHIT:          0  dtMISS:          0
cpu0_STLB WRITE        ACCESS:          0  HIT:          0  MISS:          0  iACCESS:          0  iHIT:          0  iMISS:          0  dACCESS:          0  dHIT:          0  dMISS:          0  itACCESS:          0  itHIT:          0  itMISS:          0  dtACCESS:          0  dtHIT:          0  dtMISS:          0
cpu0_STLB TRANSLATION  ACCESS:          0  HIT:          0  MISS:          0  iACCESS:          0  iHIT:          0  iMISS:          0  dACCESS:          0  dHIT:          0  dMISS:          0  itACCESS:          0  itHIT:          0  itMISS:          0  dtACCESS:          0  dtHIT:          0  dtMISS:          0
cpu0_STLB PREFETCH  REQUESTED:          0  ISSUED:          0  CROSSED:          0  USEFUL:          0  USELESS:          0
cpu0_STLB AVERAGE iMISS LATENCY: 13.95 cycles
cpu0_STLB AVERAGE dMISS LATENCY: 49.879 cycles
cpu0_STLB AVERAGE itMISS LATENCY: 0 cycles
cpu0_STLB AVERAGE dtMISS LATENCY: 0 cycles
cpu0_STLB PAGE CROSSINGS (TLB HIT):         0 
cpu0_STLB PAGE CROSSINGS (TLB MISS):         0 
cpu0_STLB AVERAGE MISS LATENCY: 63.829 cycles
cpu0_L1D TOTAL       ACCESS:   41811901  HIT:   38203547  MISS:    3608354  iACCESS:          0  iHIT:          0  iMISS:          0  dACCESS:   41573670  dHIT:   38183155  dMISS:    3390515  itACCESS:      64431  itHIT:       9197  itMISS:      55234  dtACCESS:     173800  dtHIT:      11195  dtMISS:     162605
cpu0_L1D LOAD         ACCESS:   19157141  HIT:   17629208  MISS:    1527933  iACCESS:          0  iHIT:          0  iMISS:          0  dACCESS:   19157141  dHIT:   17629208  dMISS:    1527933  itACCESS:          0  itHIT:          0  itMISS:          0  dtACCESS:          0  dtHIT:          0  dtMISS:          0
cpu0_L1D RFO          ACCESS:          0  HIT:          0  MISS:          0  iACCESS:          0  iHIT:          0  iMISS:          0  dACCESS:          0  dHIT:          0  dMISS:          0  itACCESS:          0  itHIT:          0  itMISS:          0  dtACCESS:          0  dtHIT:          0  dtMISS:          0
cpu0_L1D PREFETCH     ACCESS:   12216161  HIT:   10797278  MISS:    1418883  iACCESS:          0  iHIT:          0  iMISS:          0  dACCESS:   12216161  dHIT:   10797278  dMISS:    1418883  itACCESS:          0  itHIT:          0  itMISS:          0  dtACCESS:          0  dtHIT:          0  dtMISS:          0
cpu0_L1D WRITE        ACCESS:   10200368  HIT:    9756669  MISS:     443699  iACCESS:          0  iHIT:          0  iMISS:          0  dACCESS:   10200368  dHIT:    9756669  dMISS:     443699  itACCESS:          0  itHIT:          0  itMISS:          0  dtACCESS:          0  dtHIT:          0  dtMISS:          0
cpu0_L1D TRANSLATION  ACCESS:     238231  HIT:      20392  MISS:     217839  iACCESS:          0  iHIT:          0  iMISS:          0  dACCESS:          0  dHIT:          0  dMISS:          0  itACCESS:      64431  itHIT:       9197  itMISS:      55234  dtACCESS:     173800  dtHIT:      11195  dtMISS:     162605
cpu0_L1D PREFETCH  REQUESTED:   19157141  ISSUED:   16945760  CROSSED:          0  USEFUL:     308999  USELESS:     700629
cpu0_L1D AVERAGE iMISS LATENCY: 0 cycles
cpu0_L1D AVERAGE dMISS LATENCY: 34.8716 cycles
cpu0_L1D AVERAGE itMISS LATENCY: 0.520421 cycles
cpu0_L1D AVERAGE dtMISS LATENCY: 1.72916 cycles
cpu0_L1D PAGE CROSSINGS (TLB HIT):         0 
cpu0_L1D PAGE CROSSINGS (TLB MISS):         0 
cpu0_L1D AVERAGE MISS LATENCY: 37.1211 cycles
cpu0_L2C TOTAL       ACCESS:    7014544  HIT:    1252143  MISS:    5762401  iACCESS:    3301393  iHIT:     712342  iMISS:    2589051  dACCESS:    3510844  dHIT:     383930  dMISS:    3126914  itACCESS:      55234  itHIT:      43087  itMISS:      12147  dtACCESS:     147073  dtHIT:     112784  dtMISS:      34289
cpu0_L2C LOAD         ACCESS:    1695690  HIT:     133941  MISS:    1561749  iACCESS:     770386  iHIT:      98096  iMISS:     672290  dACCESS:     925304  dHIT:      35845  dMISS:     889459  itACCESS:          0  itHIT:          0  itMISS:          0  dtACCESS:          0  dtHIT:          0  dtMISS:          0
cpu0_L2C RFO          ACCESS:     158659  HIT:       7471  MISS:     151188  iACCESS:          0  iHIT:          0  iMISS:          0  dACCESS:     158659  dHIT:       7471  dMISS:     151188  itACCESS:          0  itHIT:          0  itMISS:          0  dtACCESS:          0  dtHIT:          0  dtMISS:          0
cpu0_L2C PREFETCH     ACCESS:    4678357  HIT:     902039  MISS:    3776318  iACCESS:    2531007  iHIT:     614246  iMISS:    1916761  dACCESS:    2147350  dHIT:     287793  dMISS:    1859557  itACCESS:          0  itHIT:          0  itMISS:          0  dtACCESS:          0  dtHIT:          0  dtMISS:          0
cpu0_L2C WRITE        ACCESS:     279531  HIT:      52821  MISS:     226710  iACCESS:          0  iHIT:          0  iMISS:          0  dACCESS:     279531  dHIT:      52821  dMISS:     226710  itACCESS:          0  itHIT:          0  itMISS:          0  dtACCESS:          0  dtHIT:          0  dtMISS:          0
cpu0_L2C TRANSLATION  ACCESS:     202307  HIT:     155871  MISS:      46436  iACCESS:          0  iHIT:          0  iMISS:          0  dACCESS:          0  dHIT:          0  dMISS:          0  itACCESS:      55234  itHIT:      43087  itMISS:      12147  dtACCESS:     147073  dtHIT:     112784  dtMISS:      34289
cpu0_L2C PREFETCH  REQUESTED:    1401234  ISSUED:    1401234  CROSSED:          0  USEFUL:     432240  USELESS:     392894
cpu0_L2C AVERAGE iMISS LATENCY: 15.0719 cycles
cpu0_L2C AVERAGE dMISS LATENCY: 25.4536 cycles
cpu0_L2C AVERAGE itMISS LATENCY: 0.237255 cycles
cpu0_L2C AVERAGE dtMISS LATENCY: 0.845857 cycles
cpu0_L2C PAGE CROSSINGS (TLB HIT):         0 
cpu0_L2C PAGE CROSSINGS (TLB MISS):         0 
cpu0_L2C AVERAGE MISS LATENCY: 41.6085 cycles
LLC TOTAL       ACCESS:    5677201  HIT:    4829347  MISS:     847854  iACCESS:    2531844  iHIT:    2271605  iMISS:     260239  dACCESS:    3098921  dHIT:    2540861  dMISS:     558060  itACCESS:      12147  itHIT:       5558  itMISS:       6589  dtACCESS:      34289  dtHIT:      11323  dtMISS:      22966
LLC LOAD         ACCESS:    1559983  HIT:    1363392  MISS:     196591  iACCESS:     670787  iHIT:     614653  iMISS:      56134  dACCESS:     889196  dHIT:     748739  dMISS:     140457  itACCESS:          0  itHIT:          0  itMISS:          0  dtACCESS:          0  dtHIT:          0  dtMISS:          0
LLC RFO          ACCESS:     151185  HIT:     109512  MISS:      41673  iACCESS:          0  iHIT:          0  iMISS:          0  dACCESS:     151185  dHIT:     109512  dMISS:      41673  itACCESS:          0  itHIT:          0  itMISS:          0  dtACCESS:          0  dtHIT:          0  dtMISS:          0
LLC PREFETCH     ACCESS:    3664807  HIT:    3084772  MISS:     580035  iACCESS:    1861057  iHIT:    1656952  iMISS:     204105  dACCESS:    1803750  dHIT:    1427820  dMISS:     375930  itACCESS:          0  itHIT:          0  itMISS:          0  dtACCESS:          0  dtHIT:          0  dtMISS:          0
LLC WRITE        ACCESS:     254790  HIT:     254790  MISS:          0  iACCESS:          0  iHIT:          0  iMISS:          0  dACCESS:     254790  dHIT:     254790  dMISS:          0  itACCESS:          0  itHIT:          0  itMISS:          0  dtACCESS:          0  dtHIT:          0  dtMISS:          0
LLC TRANSLATION  ACCESS:      46436  HIT:      16881  MISS:      29555  iACCESS:          0  iHIT:          0  iMISS:          0  dACCESS:          0  dHIT:          0  dMISS:          0  itACCESS:      12147  itHIT:       5558  itMISS:       6589  dtACCESS:      34289  dtHIT:      11323  dtMISS:      22966
LLC PREFETCH  REQUESTED:          0  ISSUED:          0  CROSSED:          0  USEFUL:          0  USELESS:          0
LLC AVERAGE iMISS LATENCY: 44.8193 cycles
LLC AVERAGE dMISS LATENCY: 108.336 cycles
LLC AVERAGE itMISS LATENCY: 1.33303 cycles
LLC AVERAGE dtMISS LATENCY: 4.95615 cycles
LLC PAGE CROSSINGS (TLB HIT):         0 
LLC PAGE CROSSINGS (TLB MISS):         0 
LLC AVERAGE MISS LATENCY: 159.444 cycles

PageTableWalker TOTAL       ACCESS:      87210  
PageTableWalker AVERAGE LATENCY: 4.17153 cycles
PageTableWalker TOTAL LATENCY: 363799 cycles

DRAM Statistics
Channel 0
 RQ ROW_BUFFER_HIT:     242606
  ROW_BUFFER_MISS:     605112
 AVG DBUS CONGESTED CYCLE:    3.64448
 WQ ROW_BUFFER_HIT:      20886
  ROW_BUFFER_MISS:      30188  FULL:          0

