last_page:0x200000000000000
VMEM_RES_CAP:0x100000
PAGE_SIZE:4096
LOG2_PAGE_SIZE:12
LOG2_PAGE_TABLE_SIZE:9
page_table_levels:5
WARNING: physical memory size is smaller than virtual memory size
FDiP enabled with aggresivity 16

*** ChampSim Multicore Out-of-Order Simulator ***

Warmup Instructions: 50000000
Simulation Instructions: 100000000
Number of CPUs: 1
Small page size: 4096
Large page size: 2097152

CPU 0 Bimodal branch predictor
Basic BTB sets: 1024 ways: 8 indirect buffer size: 4096 RAS size: 64
Instruction page size distrubution: 0
Loading instruction page size distribution from /home/bsc/bsc018186/scratch/itp_asplos25_AE/dump/srv540_ap.pdst
Data page size distrubution: 0
Loading data page size distribution from /home/bsc/bsc018186/scratch/itp_asplos25_AE/dump/srv540_ap.pdst
cpu0_L2C IP-based stride prefetcher
cpu0_L1D next line prefetcher
cpu0_L1I next line prefetcher
Off-chip DRAM Size: 4 GiB Channels: 1 Width: 64-bit Data Rate: 3200 MT/s
Heartbeat CPU 0 instructions: 10000001 cycles: 2500130 heartbeat IPC: 3.9998 cumulative IPC: 3.9998 (Simulation time: 0 hr 0 min 35 sec) 
Heartbeat CPU 0 instructions: 20000003 cycles: 5000237 heartbeat IPC: 3.99983 cumulative IPC: 3.99982 (Simulation time: 0 hr 1 min 13 sec) 
Heartbeat CPU 0 instructions: 30000003 cycles: 7500264 heartbeat IPC: 3.99996 cumulative IPC: 3.99986 (Simulation time: 0 hr 1 min 51 sec) 
Heartbeat CPU 0 instructions: 40000001 cycles: 10000275 heartbeat IPC: 3.99999 cumulative IPC: 3.9999 (Simulation time: 0 hr 2 min 28 sec) 
Heartbeat CPU 0 instructions: 50000002 cycles: 12500305 heartbeat IPC: 3.99996 cumulative IPC: 3.99991 (Simulation time: 0 hr 3 min 7 sec) 
Warmup finished CPU 0 instructions: 50000002 cycles: 12500306 cumulative IPC: 3.99991 (Simulation time: 0 hr 3 min 7 sec) 

Warmup complete CPU 0 instructions: 50000002 cycles: 12500306 (Simulation time: 0 hr 3 min 7 sec) 

Heartbeat CPU 0 instructions: 60000001 cycles: 30304161 heartbeat IPC: 0.561677 cumulative IPC: 0.561677 (Simulation time: 0 hr 4 min 12 sec) 
Heartbeat CPU 0 instructions: 70000002 cycles: 49282661 heartbeat IPC: 0.526913 cumulative IPC: 0.543739 (Simulation time: 0 hr 5 min 18 sec) 
Heartbeat CPU 0 instructions: 80000000 cycles: 67071792 heartbeat IPC: 0.562141 cumulative IPC: 0.549738 (Simulation time: 0 hr 6 min 23 sec) 
Heartbeat CPU 0 instructions: 90000001 cycles: 86588145 heartbeat IPC: 0.512391 cumulative IPC: 0.5399 (Simulation time: 0 hr 7 min 34 sec) 
Heartbeat CPU 0 instructions: 100000000 cycles: 105546348 heartbeat IPC: 0.527477 cumulative IPC: 0.537369 (Simulation time: 0 hr 8 min 46 sec) 
*** Reached end of trace: /gpfs/projects/bsc18/MN4/bsc18/romol/ChampSim/traces/qualcomm_srv/srv540_ap.champsimtrace.xz
Heartbeat CPU 0 instructions: 110000004 cycles: 125012868 heartbeat IPC: 0.513703 cumulative IPC: 0.533274 (Simulation time: 0 hr 10 min 4 sec) 
Heartbeat CPU 0 instructions: 120000002 cycles: 143934249 heartbeat IPC: 0.528503 cumulative IPC: 0.532587 (Simulation time: 0 hr 11 min 10 sec) 
Heartbeat CPU 0 instructions: 130000001 cycles: 162245913 heartbeat IPC: 0.5461 cumulative IPC: 0.53424 (Simulation time: 0 hr 12 min 16 sec) 
Heartbeat CPU 0 instructions: 140000001 cycles: 180461509 heartbeat IPC: 0.548981 cumulative IPC: 0.535839 (Simulation time: 0 hr 13 min 22 sec) 
Heartbeat CPU 0 instructions: 150000003 cycles: 200157767 heartbeat IPC: 0.507711 cumulative IPC: 0.532886 (Simulation time: 0 hr 14 min 30 sec) 
Simulation finished CPU 0 instructions: 100000001 cycles: 187657462 cumulative IPC: 0.532886 (Simulation time: 0 hr 14 min 30 sec) 

Simulation complete CPU 0 instructions: 100000001 cycles: 187657462 (Simulation time: 0 hr 14 min 30 sec) 


ChampSim completed all CPUs

Saving instructions large page distribution to /home/bsc/bsc018186/scratch/itp_asplos25_AE/dump/srv540_ap.pdst...
Saving data large page distribution to /home/bsc/bsc018186/scratch/itp_asplos25_AE/dump/srv540_ap.pdst...
=== Simulation ===
CPU 0 runs /gpfs/projects/bsc18/MN4/bsc18/romol/ChampSim/traces/qualcomm_srv/srv540_ap.champsimtrace.xz

Region of Interest Statistics

CPU 0 cumulative IPC: 0.532886 instructions: 100000001 cycles: 187657462
CPU 0 Branch Prediction Accuracy: 79.5913% MPKI: 36.6946 Average ROB Occupancy at Mispredict: 10.1626
Branch type MPKI
BRANCH_DIRECT_JUMP: 1.38632
BRANCH_INDIRECT: 18.7731
BRANCH_CONDITIONAL: 11.5695
BRANCH_DIRECT_CALL: 2.50793
BRANCH_INDIRECT_CALL: 0.65848
BRANCH_RETURN: 1.7994

Instructions large pages: 0
Instructions small pages: 1131
Large page distribution for instructions: 0%

Data large pages: 0
Data small pages: 4967
Large page distribution for data: 0%

cpu0_L1I TOTAL       ACCESS:   36104192  HIT:   27774666  MISS:    8329526  iACCESS:   36104192  iHIT:   27774666  iMISS:    8329526  dACCESS:          0  dHIT:          0  dMISS:          0  itACCESS:          0  itHIT:          0  itMISS:          0  dtACCESS:          0  dtHIT:          0  dtMISS:          0
cpu0_L1I LOAD         ACCESS:   10482058  HIT:    8208075  MISS:    2273983  iACCESS:   10482058  iHIT:    8208075  iMISS:    2273983  dACCESS:          0  dHIT:          0  dMISS:          0  itACCESS:          0  itHIT:          0  itMISS:          0  dtACCESS:          0  dtHIT:          0  dtMISS:          0
cpu0_L1I RFO          ACCESS:          0  HIT:          0  MISS:          0  iACCESS:          0  iHIT:          0  iMISS:          0  dACCESS:          0  dHIT:          0  dMISS:          0  itACCESS:          0  itHIT:          0  itMISS:          0  dtACCESS:          0  dtHIT:          0  dtMISS:          0
cpu0_L1I PREFETCH     ACCESS:   25622134  HIT:   19566591  MISS:    6055543  iACCESS:   25622134  iHIT:   19566591  iMISS:    6055543  dACCESS:          0  dHIT:          0  dMISS:          0  itACCESS:          0  itHIT:          0  itMISS:          0  dtACCESS:          0  dtHIT:          0  dtMISS:          0
cpu0_L1I WRITE        ACCESS:          0  HIT:          0  MISS:          0  iACCESS:          0  iHIT:          0  iMISS:          0  dACCESS:          0  dHIT:          0  dMISS:          0  itACCESS:          0  itHIT:          0  itMISS:          0  dtACCESS:          0  dtHIT:          0  dtMISS:          0
cpu0_L1I TRANSLATION  ACCESS:          0  HIT:          0  MISS:          0  iACCESS:          0  iHIT:          0  iMISS:          0  dACCESS:          0  dHIT:          0  dMISS:          0  itACCESS:          0  itHIT:          0  itMISS:          0  dtACCESS:          0  dtHIT:          0  dtMISS:          0
cpu0_L1I PREFETCH  REQUESTED:   27961543  ISSUED:   27960546  CROSSED:          0  USEFUL:    2012077  USELESS:     655551
cpu0_L1I AVERAGE iMISS LATENCY: 18.7812 cycles
cpu0_L1I AVERAGE dMISS LATENCY: 0 cycles
cpu0_L1I AVERAGE itMISS LATENCY: 0 cycles
cpu0_L1I AVERAGE dtMISS LATENCY: 0 cycles
cpu0_L1I PAGE CROSSINGS (TLB HIT):         0 
cpu0_L1I PAGE CROSSINGS (TLB MISS):         0 
cpu0_L1I AVERAGE MISS LATENCY: 18.7812 cycles
cpu0_ITLB TOTAL       ACCESS:   30187469  HIT:   28269912  MISS:    1917557  iACCESS:   30187469  iHIT:   28269912  iMISS:    1917557  dACCESS:          0  dHIT:          0  dMISS:          0  itACCESS:          0  itHIT:          0  itMISS:          0  dtACCESS:          0  dtHIT:          0  dtMISS:          0
cpu0_ITLB LOAD         ACCESS:   30187469  HIT:   28269912  MISS:    1917557  iACCESS:   30187469  iHIT:   28269912  iMISS:    1917557  dACCESS:          0  dHIT:          0  dMISS:          0  itACCESS:          0  itHIT:          0  itMISS:          0  dtACCESS:          0  dtHIT:          0  dtMISS:          0
cpu0_ITLB RFO          ACCESS:          0  HIT:          0  MISS:          0  iACCESS:          0  iHIT:          0  iMISS:          0  dACCESS:          0  dHIT:          0  dMISS:          0  itACCESS:          0  itHIT:          0  itMISS:          0  dtACCESS:          0  dtHIT:          0  dtMISS:          0
cpu0_ITLB PREFETCH     ACCESS:          0  HIT:          0  MISS:          0  iACCESS:          0  iHIT:          0  iMISS:          0  dACCESS:          0  dHIT:          0  dMISS:          0  itACCESS:          0  itHIT:          0  itMISS:          0  dtACCESS:          0  dtHIT:          0  dtMISS:          0
cpu0_ITLB WRITE        ACCESS:          0  HIT:          0  MISS:          0  iACCESS:          0  iHIT:          0  iMISS:          0  dACCESS:          0  dHIT:          0  dMISS:          0  itACCESS:          0  itHIT:          0  itMISS:          0  dtACCESS:          0  dtHIT:          0  dtMISS:          0
cpu0_ITLB TRANSLATION  ACCESS:          0  HIT:          0  MISS:          0  iACCESS:          0  iHIT:          0  iMISS:          0  dACCESS:          0  dHIT:          0  dMISS:          0  itACCESS:          0  itHIT:          0  itMISS:          0  dtACCESS:          0  dtHIT:          0  dtMISS:          0
cpu0_ITLB PREFETCH  REQUESTED:          0  ISSUED:          0  CROSSED:          0  USEFUL:     329707  USELESS:      64043
cpu0_ITLB AVERAGE iMISS LATENCY: 4.17695 cycles
cpu0_ITLB AVERAGE dMISS LATENCY: 0 cycles
cpu0_ITLB AVERAGE itMISS LATENCY: 0 cycles
cpu0_ITLB AVERAGE dtMISS LATENCY: 0 cycles
cpu0_ITLB PAGE CROSSINGS (TLB HIT):         0 
cpu0_ITLB PAGE CROSSINGS (TLB MISS):         0 
cpu0_ITLB AVERAGE MISS LATENCY: 4.17695 cycles
cpu0_DTLB TOTAL       ACCESS:   28114154  HIT:   26091079  MISS:    2023075  iACCESS:          0  iHIT:          0  iMISS:          0  dACCESS:   28114154  dHIT:   26091079  dMISS:    2023075  itACCESS:          0  itHIT:          0  itMISS:          0  dtACCESS:          0  dtHIT:          0  dtMISS:          0
cpu0_DTLB LOAD         ACCESS:   28114154  HIT:   26091079  MISS:    2023075  iACCESS:          0  iHIT:          0  iMISS:          0  dACCESS:   28114154  dHIT:   26091079  dMISS:    2023075  itACCESS:          0  itHIT:          0  itMISS:          0  dtACCESS:          0  dtHIT:          0  dtMISS:          0
cpu0_DTLB RFO          ACCESS:          0  HIT:          0  MISS:          0  iACCESS:          0  iHIT:          0  iMISS:          0  dACCESS:          0  dHIT:          0  dMISS:          0  itACCESS:          0  itHIT:          0  itMISS:          0  dtACCESS:          0  dtHIT:          0  dtMISS:          0
cpu0_DTLB PREFETCH     ACCESS:          0  HIT:          0  MISS:          0  iACCESS:          0  iHIT:          0  iMISS:          0  dACCESS:          0  dHIT:          0  dMISS:          0  itACCESS:          0  itHIT:          0  itMISS:          0  dtACCESS:          0  dtHIT:          0  dtMISS:          0
cpu0_DTLB WRITE        ACCESS:          0  HIT:          0  MISS:          0  iACCESS:          0  iHIT:          0  iMISS:          0  dACCESS:          0  dHIT:          0  dMISS:          0  itACCESS:          0  itHIT:          0  itMISS:          0  dtACCESS:          0  dtHIT:          0  dtMISS:          0
cpu0_DTLB TRANSLATION  ACCESS:          0  HIT:          0  MISS:          0  iACCESS:          0  iHIT:          0  iMISS:          0  dACCESS:          0  dHIT:          0  dMISS:          0  itACCESS:          0  itHIT:          0  itMISS:          0  dtACCESS:          0  dtHIT:          0  dtMISS:          0
cpu0_DTLB PREFETCH  REQUESTED:          0  ISSUED:          0  CROSSED:          0  USEFUL:          0  USELESS:          0
cpu0_DTLB AVERAGE iMISS LATENCY: 0 cycles
cpu0_DTLB AVERAGE dMISS LATENCY: 11.8377 cycles
cpu0_DTLB AVERAGE itMISS LATENCY: 0 cycles
cpu0_DTLB AVERAGE dtMISS LATENCY: 0 cycles
cpu0_DTLB PAGE CROSSINGS (TLB HIT):         0 
cpu0_DTLB PAGE CROSSINGS (TLB MISS):         0 
cpu0_DTLB AVERAGE MISS LATENCY: 11.8377 cycles
cpu0_STLB TOTAL       ACCESS:    1626031  HIT:    1378894  MISS:     247137  iACCESS:     393757  iHIT:     302679  iMISS:      91078  dACCESS:    1232274  dHIT:    1076215  dMISS:     156059  itACCESS:          0  itHIT:          0  itMISS:          0  dtACCESS:          0  dtHIT:          0  dtMISS:          0
cpu0_STLB LOAD         ACCESS:    1626031  HIT:    1378894  MISS:     247137  iACCESS:     393757  iHIT:     302679  iMISS:      91078  dACCESS:    1232274  dHIT:    1076215  dMISS:     156059  itACCESS:          0  itHIT:          0  itMISS:          0  dtACCESS:          0  dtHIT:          0  dtMISS:          0
cpu0_STLB RFO          ACCESS:          0  HIT:          0  MISS:          0  iACCESS:          0  iHIT:          0  iMISS:          0  dACCESS:          0  dHIT:          0  dMISS:          0  itACCESS:          0  itHIT:          0  itMISS:          0  dtACCESS:          0  dtHIT:          0  dtMISS:          0
cpu0_STLB PREFETCH     ACCESS:          0  HIT:          0  MISS:          0  iACCESS:          0  iHIT:          0  iMISS:          0  dACCESS:          0  dHIT:          0  dMISS:          0  itACCESS:          0  itHIT:          0  itMISS:          0  dtACCESS:          0  dtHIT:          0  dtMISS:          0
cpu0_STLB WRITE        ACCESS:          0  HIT:          0  MISS:          0  iACCESS:          0  iHIT:          0  iMISS:          0  dACCESS:          0  dHIT:          0  dMISS:          0  itACCESS:          0  itHIT:          0  itMISS:          0  dtACCESS:          0  dtHIT:          0  dtMISS:          0
cpu0_STLB TRANSLATION  ACCESS:          0  HIT:          0  MISS:          0  iACCESS:          0  iHIT:          0  iMISS:          0  dACCESS:          0  dHIT:          0  dMISS:          0  itACCESS:          0  itHIT:          0  itMISS:          0  dtACCESS:          0  dtHIT:          0  dtMISS:          0
cpu0_STLB PREFETCH  REQUESTED:          0  ISSUED:          0  CROSSED:          0  USEFUL:          0  USELESS:          0
cpu0_STLB AVERAGE iMISS LATENCY: 19.7047 cycles
cpu0_STLB AVERAGE dMISS LATENCY: 57.0326 cycles
cpu0_STLB AVERAGE itMISS LATENCY: 0 cycles
cpu0_STLB AVERAGE dtMISS LATENCY: 0 cycles
cpu0_STLB PAGE CROSSINGS (TLB HIT):         0 
cpu0_STLB PAGE CROSSINGS (TLB MISS):         0 
cpu0_STLB AVERAGE MISS LATENCY: 76.7373 cycles
cpu0_L1D TOTAL       ACCESS:   43035971  HIT:   38737877  MISS:    4298094  iACCESS:          0  iHIT:          0  iMISS:          0  dACCESS:   42724886  dHIT:   38712777  dMISS:    4012109  itACCESS:      97292  itHIT:      12886  itMISS:      84406  dtACCESS:     213793  dtHIT:      12214  dtMISS:     201579
cpu0_L1D LOAD         ACCESS:   19577137  HIT:   17738341  MISS:    1838796  iACCESS:          0  iHIT:          0  iMISS:          0  dACCESS:   19577137  dHIT:   17738341  dMISS:    1838796  itACCESS:          0  itHIT:          0  itMISS:          0  dtACCESS:          0  dtHIT:          0  dtMISS:          0
cpu0_L1D RFO          ACCESS:          0  HIT:          0  MISS:          0  iACCESS:          0  iHIT:          0  iMISS:          0  dACCESS:          0  dHIT:          0  dMISS:          0  itACCESS:          0  itHIT:          0  itMISS:          0  dtACCESS:          0  dtHIT:          0  dtMISS:          0
cpu0_L1D PREFETCH     ACCESS:   13046296  HIT:   11323864  MISS:    1722432  iACCESS:          0  iHIT:          0  iMISS:          0  dACCESS:   13046296  dHIT:   11323864  dMISS:    1722432  itACCESS:          0  itHIT:          0  itMISS:          0  dtACCESS:          0  dtHIT:          0  dtMISS:          0
cpu0_L1D WRITE        ACCESS:   10101453  HIT:    9650572  MISS:     450881  iACCESS:          0  iHIT:          0  iMISS:          0  dACCESS:   10101453  dHIT:    9650572  dMISS:     450881  itACCESS:          0  itHIT:          0  itMISS:          0  dtACCESS:          0  dtHIT:          0  dtMISS:          0
cpu0_L1D TRANSLATION  ACCESS:     311085  HIT:      25100  MISS:     285985  iACCESS:          0  iHIT:          0  iMISS:          0  dACCESS:          0  dHIT:          0  dMISS:          0  itACCESS:      97292  itHIT:      12886  itMISS:      84406  dtACCESS:     213793  dtHIT:      12214  dtMISS:     201579
cpu0_L1D PREFETCH  REQUESTED:   19577137  ISSUED:   17563783  CROSSED:          0  USEFUL:     320984  USELESS:     736245
cpu0_L1D AVERAGE iMISS LATENCY: 0 cycles
cpu0_L1D AVERAGE dMISS LATENCY: 39.703 cycles
cpu0_L1D AVERAGE itMISS LATENCY: 0.950858 cycles
cpu0_L1D AVERAGE dtMISS LATENCY: 2.79084 cycles
cpu0_L1D PAGE CROSSINGS (TLB HIT):         0 
cpu0_L1D PAGE CROSSINGS (TLB MISS):         0 
cpu0_L1D AVERAGE MISS LATENCY: 43.4446 cycles
cpu0_L2C TOTAL       ACCESS:    7446143  HIT:    1651301  MISS:    5794842  iACCESS:    3390501  iHIT:     843993  iMISS:    2546508  dACCESS:    3776042  dHIT:     635911  dMISS:    3140131  itACCESS:      84406  itHIT:      59448  itMISS:      24958  dtACCESS:     195194  dtHIT:     111949  dtMISS:      83245
cpu0_L2C LOAD         ACCESS:    1759298  HIT:     257879  MISS:    1501419  iACCESS:     760036  iHIT:     135156  iMISS:     624880  dACCESS:     999262  dHIT:     122723  dMISS:     876539  itACCESS:          0  itHIT:          0  itMISS:          0  dtACCESS:          0  dtHIT:          0  dtMISS:          0
cpu0_L2C RFO          ACCESS:     162648  HIT:      40487  MISS:     122161  iACCESS:          0  iHIT:          0  iMISS:          0  dACCESS:     162648  dHIT:      40487  dMISS:     122161  itACCESS:          0  itHIT:          0  itMISS:          0  dtACCESS:          0  dtHIT:          0  dtMISS:          0
cpu0_L2C PREFETCH     ACCESS:    4961539  HIT:    1060827  MISS:    3900712  iACCESS:    2630465  iHIT:     708837  iMISS:    1921628  dACCESS:    2331074  dHIT:     351990  dMISS:    1979084  itACCESS:          0  itHIT:          0  itMISS:          0  dtACCESS:          0  dtHIT:          0  dtMISS:          0
cpu0_L2C WRITE        ACCESS:     283058  HIT:     120711  MISS:     162347  iACCESS:          0  iHIT:          0  iMISS:          0  dACCESS:     283058  dHIT:     120711  dMISS:     162347  itACCESS:          0  itHIT:          0  itMISS:          0  dtACCESS:          0  dtHIT:          0  dtMISS:          0
cpu0_L2C TRANSLATION  ACCESS:     279600  HIT:     171397  MISS:     108203  iACCESS:          0  iHIT:          0  iMISS:          0  dACCESS:          0  dHIT:          0  dMISS:          0  itACCESS:      84406  itHIT:      59448  itMISS:      24958  dtACCESS:     195194  dtHIT:     111949  dtMISS:      83245
cpu0_L2C PREFETCH  REQUESTED:    1544728  ISSUED:    1544725  CROSSED:          0  USEFUL:     438118  USELESS:     436137
cpu0_L2C AVERAGE iMISS LATENCY: 21.7041 cycles
cpu0_L2C AVERAGE dMISS LATENCY: 36.8913 cycles
cpu0_L2C AVERAGE itMISS LATENCY: 0.569571 cycles
cpu0_L2C AVERAGE dtMISS LATENCY: 1.75128 cycles
cpu0_L2C PAGE CROSSINGS (TLB HIT):         0 
cpu0_L2C PAGE CROSSINGS (TLB MISS):         0 
cpu0_L2C AVERAGE MISS LATENCY: 60.9161 cycles
LLC TOTAL       ACCESS:    5606210  HIT:    4022235  MISS:    1583975  iACCESS:    2464920  iHIT:    1930920  iMISS:     534000  dACCESS:    3033087  dHIT:    2045518  dMISS:     987569  itACCESS:      24958  itHIT:       8685  itMISS:      16273  dtACCESS:      83245  dtHIT:      37112  dtMISS:      46133
LLC LOAD         ACCESS:    1494031  HIT:    1131670  MISS:     362361  iACCESS:     623246  iHIT:     511800  iMISS:     111446  dACCESS:     870785  dHIT:     619870  dMISS:     250915  itACCESS:          0  itHIT:          0  itMISS:          0  dtACCESS:          0  dtHIT:          0  dtMISS:          0
LLC RFO          ACCESS:     122161  HIT:      66673  MISS:      55488  iACCESS:          0  iHIT:          0  iMISS:          0  dACCESS:     122161  dHIT:      66673  dMISS:      55488  itACCESS:          0  itHIT:          0  itMISS:          0  dtACCESS:          0  dtHIT:          0  dtMISS:          0
LLC PREFETCH     ACCESS:    3717034  HIT:    2623911  MISS:    1093123  iACCESS:    1841674  iHIT:    1419120  iMISS:     422554  dACCESS:    1875360  dHIT:    1204791  dMISS:     670569  itACCESS:          0  itHIT:          0  itMISS:          0  dtACCESS:          0  dtHIT:          0  dtMISS:          0
LLC WRITE        ACCESS:     164781  HIT:     154184  MISS:      10597  iACCESS:          0  iHIT:          0  iMISS:          0  dACCESS:     164781  dHIT:     154184  dMISS:      10597  itACCESS:          0  itHIT:          0  itMISS:          0  dtACCESS:          0  dtHIT:          0  dtMISS:          0
LLC TRANSLATION  ACCESS:     108203  HIT:      45797  MISS:      62406  iACCESS:          0  iHIT:          0  iMISS:          0  dACCESS:          0  dHIT:          0  dMISS:          0  itACCESS:      24958  itHIT:       8685  itMISS:      16273  dtACCESS:      83245  dtHIT:      37112  dtMISS:      46133
LLC PREFETCH  REQUESTED:          0  ISSUED:          0  CROSSED:          0  USEFUL:          0  USELESS:          0
LLC AVERAGE iMISS LATENCY: 49.2777 cycles
LLC AVERAGE dMISS LATENCY: 101.011 cycles
LLC AVERAGE itMISS LATENCY: 1.77476 cycles
LLC AVERAGE dtMISS LATENCY: 5.38066 cycles
LLC PAGE CROSSINGS (TLB HIT):         0 
LLC PAGE CROSSINGS (TLB MISS):         0 
LLC AVERAGE MISS LATENCY: 157.444 cycles

PageTableWalker TOTAL       ACCESS:     125583  
PageTableWalker AVERAGE LATENCY: 4.19193 cycles
PageTableWalker TOTAL LATENCY: 526434 cycles

DRAM Statistics
Channel 0
 RQ ROW_BUFFER_HIT:     474346
  ROW_BUFFER_MISS:    1084137
 AVG DBUS CONGESTED CYCLE:    3.63931
 WQ ROW_BUFFER_HIT:      32370
  ROW_BUFFER_MISS:      26412  FULL:          0

