last_page:0x200000000000000
VMEM_RES_CAP:0x100000
PAGE_SIZE:4096
LOG2_PAGE_SIZE:12
LOG2_PAGE_TABLE_SIZE:9
page_table_levels:5
WARNING: physical memory size is smaller than virtual memory size
FDiP enabled with aggresivity 16

*** ChampSim Multicore Out-of-Order Simulator ***

Warmup Instructions: 50000000
Simulation Instructions: 100000000
Number of CPUs: 1
Small page size: 4096
Large page size: 2097152

CPU 0 Bimodal branch predictor
Basic BTB sets: 1024 ways: 8 indirect buffer size: 4096 RAS size: 64
Instruction page size distrubution: 0
Loading instruction page size distribution from /home/bsc/bsc018186/scratch/itp_asplos25_AE/dump/srv537_ap.pdst
Data page size distrubution: 0
Loading data page size distribution from /home/bsc/bsc018186/scratch/itp_asplos25_AE/dump/srv537_ap.pdst
cpu0_L2C IP-based stride prefetcher
cpu0_L2C is using PTP replacement policy:
	TLB_STRESS_THRESHOLD:0
	PTE_EVICTION_RATIO:0
cpu0_L1D next line prefetcher
cpu0_L1I next line prefetcher
Off-chip DRAM Size: 4 GiB Channels: 1 Width: 64-bit Data Rate: 3200 MT/s
Heartbeat CPU 0 instructions: 10000002 cycles: 2500337 heartbeat IPC: 3.99947 cumulative IPC: 3.99947 (Simulation time: 0 hr 0 min 38 sec) 
Heartbeat CPU 0 instructions: 20000000 cycles: 5000452 heartbeat IPC: 3.99982 cumulative IPC: 3.99964 (Simulation time: 0 hr 1 min 17 sec) 
Heartbeat CPU 0 instructions: 30000003 cycles: 7502232 heartbeat IPC: 3.99716 cumulative IPC: 3.99882 (Simulation time: 0 hr 1 min 57 sec) 
Heartbeat CPU 0 instructions: 40000000 cycles: 10002345 heartbeat IPC: 3.99982 cumulative IPC: 3.99907 (Simulation time: 0 hr 2 min 37 sec) 
Heartbeat CPU 0 instructions: 50000003 cycles: 12502361 heartbeat IPC: 3.99998 cumulative IPC: 3.99925 (Simulation time: 0 hr 3 min 18 sec) 
Warmup finished CPU 0 instructions: 50000003 cycles: 12502362 cumulative IPC: 3.99925 (Simulation time: 0 hr 3 min 18 sec) 

Warmup complete CPU 0 instructions: 50000003 cycles: 12502362 (Simulation time: 0 hr 3 min 18 sec) 

Heartbeat CPU 0 instructions: 60000002 cycles: 31245972 heartbeat IPC: 0.533516 cumulative IPC: 0.533516 (Simulation time: 0 hr 4 min 28 sec) 
Heartbeat CPU 0 instructions: 70000003 cycles: 48862993 heartbeat IPC: 0.567633 cumulative IPC: 0.550046 (Simulation time: 0 hr 5 min 36 sec) 
Heartbeat CPU 0 instructions: 80000000 cycles: 68575855 heartbeat IPC: 0.507283 cumulative IPC: 0.535013 (Simulation time: 0 hr 6 min 49 sec) 
Heartbeat CPU 0 instructions: 90000002 cycles: 86942516 heartbeat IPC: 0.544465 cumulative IPC: 0.537345 (Simulation time: 0 hr 7 min 58 sec) 
Heartbeat CPU 0 instructions: 100000001 cycles: 105896262 heartbeat IPC: 0.527601 cumulative IPC: 0.535367 (Simulation time: 0 hr 9 min 8 sec) 
*** Reached end of trace: /gpfs/projects/bsc18/MN4/bsc18/romol/ChampSim/traces/qualcomm_srv/srv537_ap.champsimtrace.xz
Heartbeat CPU 0 instructions: 110000002 cycles: 123765426 heartbeat IPC: 0.559624 cumulative IPC: 0.539263 (Simulation time: 0 hr 10 min 17 sec) 
Heartbeat CPU 0 instructions: 120000003 cycles: 141751120 heartbeat IPC: 0.555998 cumulative IPC: 0.541592 (Simulation time: 0 hr 11 min 26 sec) 
Heartbeat CPU 0 instructions: 130000001 cycles: 160306328 heartbeat IPC: 0.538933 cumulative IPC: 0.541258 (Simulation time: 0 hr 12 min 35 sec) 
Heartbeat CPU 0 instructions: 140000001 cycles: 179516722 heartbeat IPC: 0.520552 cumulative IPC: 0.538876 (Simulation time: 0 hr 13 min 46 sec) 
Heartbeat CPU 0 instructions: 150000001 cycles: 197906390 heartbeat IPC: 0.543784 cumulative IPC: 0.539363 (Simulation time: 0 hr 14 min 56 sec) 
Simulation finished CPU 0 instructions: 100000001 cycles: 185404030 cumulative IPC: 0.539363 (Simulation time: 0 hr 14 min 56 sec) 

Simulation complete CPU 0 instructions: 100000001 cycles: 185404030 (Simulation time: 0 hr 14 min 56 sec) 


ChampSim completed all CPUs

Saving instructions large page distribution to /home/bsc/bsc018186/scratch/itp_asplos25_AE/dump/srv537_ap.pdst...
Saving data large page distribution to /home/bsc/bsc018186/scratch/itp_asplos25_AE/dump/srv537_ap.pdst...
=== Simulation ===
CPU 0 runs /gpfs/projects/bsc18/MN4/bsc18/romol/ChampSim/traces/qualcomm_srv/srv537_ap.champsimtrace.xz

Region of Interest Statistics

CPU 0 cumulative IPC: 0.539363 instructions: 100000001 cycles: 185404030
CPU 0 Branch Prediction Accuracy: 80.1094% MPKI: 35.9059 Average ROB Occupancy at Mispredict: 10.2527
Branch type MPKI
BRANCH_DIRECT_JUMP: 1.34792
BRANCH_INDIRECT: 18.177
BRANCH_CONDITIONAL: 11.5217
BRANCH_DIRECT_CALL: 2.48336
BRANCH_INDIRECT_CALL: 0.66396
BRANCH_RETURN: 1.71192

Instructions large pages: 0
Instructions small pages: 1153
Large page distribution for instructions: 0%

Data large pages: 0
Data small pages: 5424
Large page distribution for data: 0%

cpu0_L1I TOTAL       ACCESS:   36317414  HIT:   27832812  MISS:    8484602  iACCESS:   36317414  iHIT:   27832812  iMISS:    8484602  dACCESS:          0  dHIT:          0  dMISS:          0  itACCESS:          0  itHIT:          0  itMISS:          0  dtACCESS:          0  dtHIT:          0  dtMISS:          0
cpu0_L1I LOAD         ACCESS:   10581062  HIT:    8251028  MISS:    2330034  iACCESS:   10581062  iHIT:    8251028  iMISS:    2330034  dACCESS:          0  dHIT:          0  dMISS:          0  itACCESS:          0  itHIT:          0  itMISS:          0  dtACCESS:          0  dtHIT:          0  dtMISS:          0
cpu0_L1I RFO          ACCESS:          0  HIT:          0  MISS:          0  iACCESS:          0  iHIT:          0  iMISS:          0  dACCESS:          0  dHIT:          0  dMISS:          0  itACCESS:          0  itHIT:          0  itMISS:          0  dtACCESS:          0  dtHIT:          0  dtMISS:          0
cpu0_L1I PREFETCH     ACCESS:   25736352  HIT:   19581784  MISS:    6154568  iACCESS:   25736352  iHIT:   19581784  iMISS:    6154568  dACCESS:          0  dHIT:          0  dMISS:          0  itACCESS:          0  itHIT:          0  itMISS:          0  dtACCESS:          0  dtHIT:          0  dtMISS:          0
cpu0_L1I WRITE        ACCESS:          0  HIT:          0  MISS:          0  iACCESS:          0  iHIT:          0  iMISS:          0  dACCESS:          0  dHIT:          0  dMISS:          0  itACCESS:          0  itHIT:          0  itMISS:          0  dtACCESS:          0  dtHIT:          0  dtMISS:          0
cpu0_L1I TRANSLATION  ACCESS:          0  HIT:          0  MISS:          0  iACCESS:          0  iHIT:          0  iMISS:          0  dACCESS:          0  dHIT:          0  dMISS:          0  itACCESS:          0  itHIT:          0  itMISS:          0  dtACCESS:          0  dtHIT:          0  dtMISS:          0
cpu0_L1I PREFETCH  REQUESTED:   28089312  ISSUED:   28086571  CROSSED:          0  USEFUL:    2010032  USELESS:     661382
cpu0_L1I AVERAGE iMISS LATENCY: 19.4455 cycles
cpu0_L1I AVERAGE dMISS LATENCY: 0 cycles
cpu0_L1I AVERAGE itMISS LATENCY: 0 cycles
cpu0_L1I AVERAGE dtMISS LATENCY: 0 cycles
cpu0_L1I PAGE CROSSINGS (TLB HIT):         0 
cpu0_L1I PAGE CROSSINGS (TLB MISS):         0 
cpu0_L1I AVERAGE MISS LATENCY: 19.4455 cycles
cpu0_ITLB TOTAL       ACCESS:   30298239  HIT:   28363806  MISS:    1934433  iACCESS:   30298239  iHIT:   28363806  iMISS:    1934433  dACCESS:          0  dHIT:          0  dMISS:          0  itACCESS:          0  itHIT:          0  itMISS:          0  dtACCESS:          0  dtHIT:          0  dtMISS:          0
cpu0_ITLB LOAD         ACCESS:   30298239  HIT:   28363806  MISS:    1934433  iACCESS:   30298239  iHIT:   28363806  iMISS:    1934433  dACCESS:          0  dHIT:          0  dMISS:          0  itACCESS:          0  itHIT:          0  itMISS:          0  dtACCESS:          0  dtHIT:          0  dtMISS:          0
cpu0_ITLB RFO          ACCESS:          0  HIT:          0  MISS:          0  iACCESS:          0  iHIT:          0  iMISS:          0  dACCESS:          0  dHIT:          0  dMISS:          0  itACCESS:          0  itHIT:          0  itMISS:          0  dtACCESS:          0  dtHIT:          0  dtMISS:          0
cpu0_ITLB PREFETCH     ACCESS:          0  HIT:          0  MISS:          0  iACCESS:          0  iHIT:          0  iMISS:          0  dACCESS:          0  dHIT:          0  dMISS:          0  itACCESS:          0  itHIT:          0  itMISS:          0  dtACCESS:          0  dtHIT:          0  dtMISS:          0
cpu0_ITLB WRITE        ACCESS:          0  HIT:          0  MISS:          0  iACCESS:          0  iHIT:          0  iMISS:          0  dACCESS:          0  dHIT:          0  dMISS:          0  itACCESS:          0  itHIT:          0  itMISS:          0  dtACCESS:          0  dtHIT:          0  dtMISS:          0
cpu0_ITLB TRANSLATION  ACCESS:          0  HIT:          0  MISS:          0  iACCESS:          0  iHIT:          0  iMISS:          0  dACCESS:          0  dHIT:          0  dMISS:          0  itACCESS:          0  itHIT:          0  itMISS:          0  dtACCESS:          0  dtHIT:          0  dtMISS:          0
cpu0_ITLB PREFETCH  REQUESTED:          0  ISSUED:          0  CROSSED:          0  USEFUL:     329182  USELESS:      66214
cpu0_ITLB AVERAGE iMISS LATENCY: 3.73629 cycles
cpu0_ITLB AVERAGE dMISS LATENCY: 0 cycles
cpu0_ITLB AVERAGE itMISS LATENCY: 0 cycles
cpu0_ITLB AVERAGE dtMISS LATENCY: 0 cycles
cpu0_ITLB PAGE CROSSINGS (TLB HIT):         0 
cpu0_ITLB PAGE CROSSINGS (TLB MISS):         0 
cpu0_ITLB AVERAGE MISS LATENCY: 3.73629 cycles
cpu0_DTLB TOTAL       ACCESS:   28056760  HIT:   26312527  MISS:    1744233  iACCESS:          0  iHIT:          0  iMISS:          0  dACCESS:   28056760  dHIT:   26312527  dMISS:    1744233  itACCESS:          0  itHIT:          0  itMISS:          0  dtACCESS:          0  dtHIT:          0  dtMISS:          0
cpu0_DTLB LOAD         ACCESS:   28056760  HIT:   26312527  MISS:    1744233  iACCESS:          0  iHIT:          0  iMISS:          0  dACCESS:   28056760  dHIT:   26312527  dMISS:    1744233  itACCESS:          0  itHIT:          0  itMISS:          0  dtACCESS:          0  dtHIT:          0  dtMISS:          0
cpu0_DTLB RFO          ACCESS:          0  HIT:          0  MISS:          0  iACCESS:          0  iHIT:          0  iMISS:          0  dACCESS:          0  dHIT:          0  dMISS:          0  itACCESS:          0  itHIT:          0  itMISS:          0  dtACCESS:          0  dtHIT:          0  dtMISS:          0
cpu0_DTLB PREFETCH     ACCESS:          0  HIT:          0  MISS:          0  iACCESS:          0  iHIT:          0  iMISS:          0  dACCESS:          0  dHIT:          0  dMISS:          0  itACCESS:          0  itHIT:          0  itMISS:          0  dtACCESS:          0  dtHIT:          0  dtMISS:          0
cpu0_DTLB WRITE        ACCESS:          0  HIT:          0  MISS:          0  iACCESS:          0  iHIT:          0  iMISS:          0  dACCESS:          0  dHIT:          0  dMISS:          0  itACCESS:          0  itHIT:          0  itMISS:          0  dtACCESS:          0  dtHIT:          0  dtMISS:          0
cpu0_DTLB TRANSLATION  ACCESS:          0  HIT:          0  MISS:          0  iACCESS:          0  iHIT:          0  iMISS:          0  dACCESS:          0  dHIT:          0  dMISS:          0  itACCESS:          0  itHIT:          0  itMISS:          0  dtACCESS:          0  dtHIT:          0  dtMISS:          0
cpu0_DTLB PREFETCH  REQUESTED:          0  ISSUED:          0  CROSSED:          0  USEFUL:          0  USELESS:          0
cpu0_DTLB AVERAGE iMISS LATENCY: 0 cycles
cpu0_DTLB AVERAGE dMISS LATENCY: 10.7926 cycles
cpu0_DTLB AVERAGE itMISS LATENCY: 0 cycles
cpu0_DTLB AVERAGE dtMISS LATENCY: 0 cycles
cpu0_DTLB PAGE CROSSINGS (TLB HIT):         0 
cpu0_DTLB PAGE CROSSINGS (TLB MISS):         0 
cpu0_DTLB AVERAGE MISS LATENCY: 10.7926 cycles
cpu0_STLB TOTAL       ACCESS:    1500374  HIT:    1262415  MISS:     237959  iACCESS:     395414  iHIT:     305885  iMISS:      89529  dACCESS:    1104960  dHIT:     956530  dMISS:     148430  itACCESS:          0  itHIT:          0  itMISS:          0  dtACCESS:          0  dtHIT:          0  dtMISS:          0
cpu0_STLB LOAD         ACCESS:    1500374  HIT:    1262415  MISS:     237959  iACCESS:     395414  iHIT:     305885  iMISS:      89529  dACCESS:    1104960  dHIT:     956530  dMISS:     148430  itACCESS:          0  itHIT:          0  itMISS:          0  dtACCESS:          0  dtHIT:          0  dtMISS:          0
cpu0_STLB RFO          ACCESS:          0  HIT:          0  MISS:          0  iACCESS:          0  iHIT:          0  iMISS:          0  dACCESS:          0  dHIT:          0  dMISS:          0  itACCESS:          0  itHIT:          0  itMISS:          0  dtACCESS:          0  dtHIT:          0  dtMISS:          0
cpu0_STLB PREFETCH     ACCESS:          0  HIT:          0  MISS:          0  iACCESS:          0  iHIT:          0  iMISS:          0  dACCESS:          0  dHIT:          0  dMISS:          0  itACCESS:          0  itHIT:          0  itMISS:          0  dtACCESS:          0  dtHIT:          0  dtMISS:          0
cpu0_STLB WRITE        ACCESS:          0  HIT:          0  MISS:          0  iACCESS:          0  iHIT:          0  iMISS:          0  dACCESS:          0  dHIT:          0  dMISS:          0  itACCESS:          0  itHIT:          0  itMISS:          0  dtACCESS:          0  dtHIT:          0  dtMISS:          0
cpu0_STLB TRANSLATION  ACCESS:          0  HIT:          0  MISS:          0  iACCESS:          0  iHIT:          0  iMISS:          0  dACCESS:          0  dHIT:          0  dMISS:          0  itACCESS:          0  itHIT:          0  itMISS:          0  dtACCESS:          0  dtHIT:          0  dtMISS:          0
cpu0_STLB PREFETCH  REQUESTED:          0  ISSUED:          0  CROSSED:          0  USEFUL:          0  USELESS:          0
cpu0_STLB AVERAGE iMISS LATENCY: 17.1258 cycles
cpu0_STLB AVERAGE dMISS LATENCY: 41.942 cycles
cpu0_STLB AVERAGE itMISS LATENCY: 0 cycles
cpu0_STLB AVERAGE dtMISS LATENCY: 0 cycles
cpu0_STLB PAGE CROSSINGS (TLB HIT):         0 
cpu0_STLB PAGE CROSSINGS (TLB MISS):         0 
cpu0_STLB AVERAGE MISS LATENCY: 59.0678 cycles
cpu0_L1D TOTAL       ACCESS:   43075851  HIT:   38578583  MISS:    4497268  iACCESS:          0  iHIT:          0  iMISS:          0  dACCESS:   42772972  dHIT:   38553666  dMISS:    4219306  itACCESS:      95686  itHIT:      13013  itMISS:      82673  dtACCESS:     207193  dtHIT:      11904  dtMISS:     195289
cpu0_L1D LOAD         ACCESS:   19642198  HIT:   17712442  MISS:    1929756  iACCESS:          0  iHIT:          0  iMISS:          0  dACCESS:   19642198  dHIT:   17712442  dMISS:    1929756  itACCESS:          0  itHIT:          0  itMISS:          0  dtACCESS:          0  dtHIT:          0  dtMISS:          0
cpu0_L1D RFO          ACCESS:          0  HIT:          0  MISS:          0  iACCESS:          0  iHIT:          0  iMISS:          0  dACCESS:          0  dHIT:          0  dMISS:          0  itACCESS:          0  itHIT:          0  itMISS:          0  dtACCESS:          0  dtHIT:          0  dtMISS:          0
cpu0_L1D PREFETCH     ACCESS:   12995360  HIT:   11164950  MISS:    1830410  iACCESS:          0  iHIT:          0  iMISS:          0  dACCESS:   12995360  dHIT:   11164950  dMISS:    1830410  itACCESS:          0  itHIT:          0  itMISS:          0  dtACCESS:          0  dtHIT:          0  dtMISS:          0
cpu0_L1D WRITE        ACCESS:   10135414  HIT:    9676274  MISS:     459140  iACCESS:          0  iHIT:          0  iMISS:          0  dACCESS:   10135414  dHIT:    9676274  dMISS:     459140  itACCESS:          0  itHIT:          0  itMISS:          0  dtACCESS:          0  dtHIT:          0  dtMISS:          0
cpu0_L1D TRANSLATION  ACCESS:     302879  HIT:      24917  MISS:     277962  iACCESS:          0  iHIT:          0  iMISS:          0  dACCESS:          0  dHIT:          0  dMISS:          0  itACCESS:      95686  itHIT:      13013  itMISS:      82673  dtACCESS:     207193  dtHIT:      11904  dtMISS:     195289
cpu0_L1D PREFETCH  REQUESTED:   19642198  ISSUED:   17319882  CROSSED:          0  USEFUL:     320312  USELESS:     716793
cpu0_L1D AVERAGE iMISS LATENCY: 0 cycles
cpu0_L1D AVERAGE dMISS LATENCY: 40.2707 cycles
cpu0_L1D AVERAGE itMISS LATENCY: 0.736354 cycles
cpu0_L1D AVERAGE dtMISS LATENCY: 1.78385 cycles
cpu0_L1D PAGE CROSSINGS (TLB HIT):         0 
cpu0_L1D PAGE CROSSINGS (TLB MISS):         0 
cpu0_L1D AVERAGE MISS LATENCY: 42.7909 cycles
cpu0_L2C TOTAL       ACCESS:    7387571  HIT:    1328678  MISS:    6058893  iACCESS:    3404749  iHIT:     727685  iMISS:    2677064  dACCESS:    3713711  dHIT:     388343  dMISS:    3325368  itACCESS:      82673  itHIT:      64243  itMISS:      18430  dtACCESS:     186438  dtHIT:     148407  dtMISS:      38031
cpu0_L2C LOAD         ACCESS:    1740861  HIT:     137340  MISS:    1603521  iACCESS:     769868  iHIT:      99849  iMISS:     670019  dACCESS:     970993  dHIT:      37491  dMISS:     933502  itACCESS:          0  itHIT:          0  itMISS:          0  dtACCESS:          0  dtHIT:          0  dtMISS:          0
cpu0_L2C RFO          ACCESS:     160024  HIT:       7667  MISS:     152357  iACCESS:          0  iHIT:          0  iMISS:          0  dACCESS:     160024  dHIT:       7667  dMISS:     152357  itACCESS:          0  itHIT:          0  itMISS:          0  dtACCESS:          0  dtHIT:          0  dtMISS:          0
cpu0_L2C PREFETCH     ACCESS:    4935904  HIT:     910100  MISS:    4025804  iACCESS:    2634881  iHIT:     627836  iMISS:    2007045  dACCESS:    2301023  dHIT:     282264  dMISS:    2018759  itACCESS:          0  itHIT:          0  itMISS:          0  dtACCESS:          0  dtHIT:          0  dtMISS:          0
cpu0_L2C WRITE        ACCESS:     281671  HIT:      60921  MISS:     220750  iACCESS:          0  iHIT:          0  iMISS:          0  dACCESS:     281671  dHIT:      60921  dMISS:     220750  itACCESS:          0  itHIT:          0  itMISS:          0  dtACCESS:          0  dtHIT:          0  dtMISS:          0
cpu0_L2C TRANSLATION  ACCESS:     269111  HIT:     212650  MISS:      56461  iACCESS:          0  iHIT:          0  iMISS:          0  dACCESS:          0  dHIT:          0  dMISS:          0  itACCESS:      82673  itHIT:      64243  itMISS:      18430  dtACCESS:     186438  dtHIT:     148407  dtMISS:      38031
cpu0_L2C PREFETCH  REQUESTED:    1535077  ISSUED:    1535072  CROSSED:          0  USEFUL:     441555  USELESS:     442336
cpu0_L2C AVERAGE iMISS LATENCY: 22.2547 cycles
cpu0_L2C AVERAGE dMISS LATENCY: 37.5861 cycles
cpu0_L2C AVERAGE itMISS LATENCY: 0.42041 cycles
cpu0_L2C AVERAGE dtMISS LATENCY: 1.03994 cycles
cpu0_L2C PAGE CROSSINGS (TLB HIT):         0 
cpu0_L2C PAGE CROSSINGS (TLB MISS):         0 
cpu0_L2C AVERAGE MISS LATENCY: 61.3011 cycles
LLC TOTAL       ACCESS:    5901617  HIT:    4251345  MISS:    1650272  iACCESS:    2597987  iHIT:    2021029  iMISS:     576958  dACCESS:    3247169  dHIT:    2216001  dMISS:    1031168  itACCESS:      18430  itHIT:       5891  itMISS:      12539  dtACCESS:      38031  dtHIT:       8424  dtMISS:      29607
LLC LOAD         ACCESS:    1597105  HIT:    1209352  MISS:     387753  iACCESS:     668659  iHIT:     549468  iMISS:     119191  dACCESS:     928446  dHIT:     659884  dMISS:     268562  itACCESS:          0  itHIT:          0  itMISS:          0  dtACCESS:          0  dtHIT:          0  dtMISS:          0
LLC RFO          ACCESS:     152350  HIT:      90630  MISS:      61720  iACCESS:          0  iHIT:          0  iMISS:          0  dACCESS:     152350  dHIT:      90630  dMISS:      61720  itACCESS:          0  itHIT:          0  itMISS:          0  dtACCESS:          0  dtHIT:          0  dtMISS:          0
LLC PREFETCH     ACCESS:    3839806  HIT:    2681153  MISS:    1158653  iACCESS:    1929328  iHIT:    1471561  iMISS:     457767  dACCESS:    1910478  dHIT:    1209592  dMISS:     700886  itACCESS:          0  itHIT:          0  itMISS:          0  dtACCESS:          0  dtHIT:          0  dtMISS:          0
LLC WRITE        ACCESS:     255895  HIT:     255895  MISS:          0  iACCESS:          0  iHIT:          0  iMISS:          0  dACCESS:     255895  dHIT:     255895  dMISS:          0  itACCESS:          0  itHIT:          0  itMISS:          0  dtACCESS:          0  dtHIT:          0  dtMISS:          0
LLC TRANSLATION  ACCESS:      56461  HIT:      14315  MISS:      42146  iACCESS:          0  iHIT:          0  iMISS:          0  dACCESS:          0  dHIT:          0  dMISS:          0  itACCESS:      18430  itHIT:       5891  itMISS:      12539  dtACCESS:      38031  dtHIT:       8424  dtMISS:      29607
LLC PREFETCH  REQUESTED:          0  ISSUED:          0  CROSSED:          0  USEFUL:          0  USELESS:          0
LLC AVERAGE iMISS LATENCY: 51.2301 cycles
LLC AVERAGE dMISS LATENCY: 103.981 cycles
LLC AVERAGE itMISS LATENCY: 1.32427 cycles
LLC AVERAGE dtMISS LATENCY: 3.36399 cycles
LLC PAGE CROSSINGS (TLB HIT):         0 
LLC PAGE CROSSINGS (TLB MISS):         0 
LLC AVERAGE MISS LATENCY: 159.899 cycles

PageTableWalker TOTAL       ACCESS:     119344  
PageTableWalker AVERAGE LATENCY: 3.88441 cycles
PageTableWalker TOTAL LATENCY: 463580 cycles

DRAM Statistics
Channel 0
 RQ ROW_BUFFER_HIT:     505427
  ROW_BUFFER_MISS:    1125765
 AVG DBUS CONGESTED CYCLE:    3.65415
 WQ ROW_BUFFER_HIT:      42168
  ROW_BUFFER_MISS:      43841  FULL:          0

