last_page:0x200000000000000
VMEM_RES_CAP:0x100000
PAGE_SIZE:4096
LOG2_PAGE_SIZE:12
LOG2_PAGE_TABLE_SIZE:9
page_table_levels:5
WARNING: physical memory size is smaller than virtual memory size
FDiP enabled with aggresivity 16

*** ChampSim Multicore Out-of-Order Simulator ***

Warmup Instructions: 50000000
Simulation Instructions: 100000000
Number of CPUs: 1
Small page size: 4096
Large page size: 2097152

CPU 0 Bimodal branch predictor
Basic BTB sets: 1024 ways: 8 indirect buffer size: 4096 RAS size: 64
Instruction page size distrubution: 0
Loading instruction page size distribution from /home/bsc/bsc018186/scratch/itp_asplos25_AE/dump/srv506_ap.pdst
Data page size distrubution: 0
Loading data page size distribution from /home/bsc/bsc018186/scratch/itp_asplos25_AE/dump/srv506_ap.pdst
cpu0_L2C IP-based stride prefetcher
cpu0_L2C is using PTP replacement policy:
	TLB_STRESS_THRESHOLD:0
	PTE_EVICTION_RATIO:0
cpu0_L1D next line prefetcher
cpu0_L1I next line prefetcher
Off-chip DRAM Size: 4 GiB Channels: 1 Width: 64-bit Data Rate: 3200 MT/s
Heartbeat CPU 0 instructions: 10000003 cycles: 2500124 heartbeat IPC: 3.99981 cumulative IPC: 3.99981 (Simulation time: 0 hr 0 min 37 sec) 
Heartbeat CPU 0 instructions: 20000001 cycles: 5000177 heartbeat IPC: 3.99992 cumulative IPC: 3.99986 (Simulation time: 0 hr 1 min 17 sec) 
Heartbeat CPU 0 instructions: 30000001 cycles: 7500239 heartbeat IPC: 3.99991 cumulative IPC: 3.99988 (Simulation time: 0 hr 1 min 58 sec) 
Heartbeat CPU 0 instructions: 40000000 cycles: 10000266 heartbeat IPC: 3.99996 cumulative IPC: 3.9999 (Simulation time: 0 hr 2 min 39 sec) 
Heartbeat CPU 0 instructions: 50000000 cycles: 12500277 heartbeat IPC: 3.99999 cumulative IPC: 3.99992 (Simulation time: 0 hr 3 min 19 sec) 
Warmup finished CPU 0 instructions: 50000000 cycles: 12500278 cumulative IPC: 3.99992 (Simulation time: 0 hr 3 min 19 sec) 

Warmup complete CPU 0 instructions: 50000000 cycles: 12500278 (Simulation time: 0 hr 3 min 19 sec) 

Heartbeat CPU 0 instructions: 60000003 cycles: 27341020 heartbeat IPC: 0.673821 cumulative IPC: 0.673821 (Simulation time: 0 hr 4 min 23 sec) 
Heartbeat CPU 0 instructions: 70000002 cycles: 42131524 heartbeat IPC: 0.67611 cumulative IPC: 0.674964 (Simulation time: 0 hr 5 min 28 sec) 
Heartbeat CPU 0 instructions: 80000001 cycles: 57747470 heartbeat IPC: 0.640372 cumulative IPC: 0.663025 (Simulation time: 0 hr 6 min 34 sec) 
Heartbeat CPU 0 instructions: 90000001 cycles: 72221053 heartbeat IPC: 0.690914 cumulative IPC: 0.669784 (Simulation time: 0 hr 7 min 39 sec) 
Heartbeat CPU 0 instructions: 100000003 cycles: 86888791 heartbeat IPC: 0.681769 cumulative IPC: 0.672147 (Simulation time: 0 hr 8 min 45 sec) 
*** Reached end of trace: /gpfs/projects/bsc18/MN4/bsc18/romol/ChampSim/traces/qualcomm_srv/srv506_ap.champsimtrace.xz
Heartbeat CPU 0 instructions: 110000001 cycles: 101451099 heartbeat IPC: 0.686705 cumulative IPC: 0.674531 (Simulation time: 0 hr 9 min 51 sec) 
Heartbeat CPU 0 instructions: 120000003 cycles: 115828775 heartbeat IPC: 0.695523 cumulative IPC: 0.677452 (Simulation time: 0 hr 10 min 56 sec) 
Heartbeat CPU 0 instructions: 130000000 cycles: 130134613 heartbeat IPC: 0.699016 cumulative IPC: 0.680074 (Simulation time: 0 hr 12 min 2 sec) 
Heartbeat CPU 0 instructions: 140000002 cycles: 144071910 heartbeat IPC: 0.7175 cumulative IPC: 0.684039 (Simulation time: 0 hr 13 min 6 sec) 
Heartbeat CPU 0 instructions: 150000000 cycles: 159109569 heartbeat IPC: 0.664997 cumulative IPC: 0.682086 (Simulation time: 0 hr 14 min 13 sec) 
Simulation finished CPU 0 instructions: 100000000 cycles: 146609292 cumulative IPC: 0.682086 (Simulation time: 0 hr 14 min 13 sec) 

Simulation complete CPU 0 instructions: 100000000 cycles: 146609292 (Simulation time: 0 hr 14 min 13 sec) 


ChampSim completed all CPUs

Saving instructions large page distribution to /home/bsc/bsc018186/scratch/itp_asplos25_AE/dump/srv506_ap.pdst...
Saving data large page distribution to /home/bsc/bsc018186/scratch/itp_asplos25_AE/dump/srv506_ap.pdst...
=== Simulation ===
CPU 0 runs /gpfs/projects/bsc18/MN4/bsc18/romol/ChampSim/traces/qualcomm_srv/srv506_ap.champsimtrace.xz

Region of Interest Statistics

CPU 0 cumulative IPC: 0.682086 instructions: 100000000 cycles: 146609292
CPU 0 Branch Prediction Accuracy: 82.859% MPKI: 30.6843 Average ROB Occupancy at Mispredict: 12.0377
Branch type MPKI
BRANCH_DIRECT_JUMP: 1.03521
BRANCH_INDIRECT: 15.6921
BRANCH_CONDITIONAL: 10.1968
BRANCH_DIRECT_CALL: 1.88253
BRANCH_INDIRECT_CALL: 0.530291
BRANCH_RETURN: 1.34748

Instructions large pages: 0
Instructions small pages: 1084
Large page distribution for instructions: 0%

Data large pages: 0
Data small pages: 9900
Large page distribution for data: 0%

cpu0_L1I TOTAL       ACCESS:   35627051  HIT:   27092836  MISS:    8534215  iACCESS:   35627051  iHIT:   27092836  iMISS:    8534215  dACCESS:          0  dHIT:          0  dMISS:          0  itACCESS:          0  itHIT:          0  itMISS:          0  dtACCESS:          0  dtHIT:          0  dtMISS:          0
cpu0_L1I LOAD         ACCESS:   10423047  HIT:    8038605  MISS:    2384442  iACCESS:   10423047  iHIT:    8038605  iMISS:    2384442  dACCESS:          0  dHIT:          0  dMISS:          0  itACCESS:          0  itHIT:          0  itMISS:          0  dtACCESS:          0  dtHIT:          0  dtMISS:          0
cpu0_L1I RFO          ACCESS:          0  HIT:          0  MISS:          0  iACCESS:          0  iHIT:          0  iMISS:          0  dACCESS:          0  dHIT:          0  dMISS:          0  itACCESS:          0  itHIT:          0  itMISS:          0  dtACCESS:          0  dtHIT:          0  dtMISS:          0
cpu0_L1I PREFETCH     ACCESS:   25204004  HIT:   19054231  MISS:    6149773  iACCESS:   25204004  iHIT:   19054231  iMISS:    6149773  dACCESS:          0  dHIT:          0  dMISS:          0  itACCESS:          0  itHIT:          0  itMISS:          0  dtACCESS:          0  dtHIT:          0  dtMISS:          0
cpu0_L1I WRITE        ACCESS:          0  HIT:          0  MISS:          0  iACCESS:          0  iHIT:          0  iMISS:          0  dACCESS:          0  dHIT:          0  dMISS:          0  itACCESS:          0  itHIT:          0  itMISS:          0  dtACCESS:          0  dtHIT:          0  dtMISS:          0
cpu0_L1I TRANSLATION  ACCESS:          0  HIT:          0  MISS:          0  iACCESS:          0  iHIT:          0  iMISS:          0  dACCESS:          0  dHIT:          0  dMISS:          0  itACCESS:          0  itHIT:          0  itMISS:          0  dtACCESS:          0  dtHIT:          0  dtMISS:          0
cpu0_L1I PREFETCH  REQUESTED:   27463303  ISSUED:   27460081  CROSSED:          0  USEFUL:    1941195  USELESS:     630038
cpu0_L1I AVERAGE iMISS LATENCY: 14.2309 cycles
cpu0_L1I AVERAGE dMISS LATENCY: 0 cycles
cpu0_L1I AVERAGE itMISS LATENCY: 0 cycles
cpu0_L1I AVERAGE dtMISS LATENCY: 0 cycles
cpu0_L1I PAGE CROSSINGS (TLB HIT):         0 
cpu0_L1I PAGE CROSSINGS (TLB MISS):         0 
cpu0_L1I AVERAGE MISS LATENCY: 14.2309 cycles
cpu0_ITLB TOTAL       ACCESS:   29420277  HIT:   27480927  MISS:    1939350  iACCESS:   29420277  iHIT:   27480927  iMISS:    1939350  dACCESS:          0  dHIT:          0  dMISS:          0  itACCESS:          0  itHIT:          0  itMISS:          0  dtACCESS:          0  dtHIT:          0  dtMISS:          0
cpu0_ITLB LOAD         ACCESS:   29420277  HIT:   27480927  MISS:    1939350  iACCESS:   29420277  iHIT:   27480927  iMISS:    1939350  dACCESS:          0  dHIT:          0  dMISS:          0  itACCESS:          0  itHIT:          0  itMISS:          0  dtACCESS:          0  dtHIT:          0  dtMISS:          0
cpu0_ITLB RFO          ACCESS:          0  HIT:          0  MISS:          0  iACCESS:          0  iHIT:          0  iMISS:          0  dACCESS:          0  dHIT:          0  dMISS:          0  itACCESS:          0  itHIT:          0  itMISS:          0  dtACCESS:          0  dtHIT:          0  dtMISS:          0
cpu0_ITLB PREFETCH     ACCESS:          0  HIT:          0  MISS:          0  iACCESS:          0  iHIT:          0  iMISS:          0  dACCESS:          0  dHIT:          0  dMISS:          0  itACCESS:          0  itHIT:          0  itMISS:          0  dtACCESS:          0  dtHIT:          0  dtMISS:          0
cpu0_ITLB WRITE        ACCESS:          0  HIT:          0  MISS:          0  iACCESS:          0  iHIT:          0  iMISS:          0  dACCESS:          0  dHIT:          0  dMISS:          0  itACCESS:          0  itHIT:          0  itMISS:          0  dtACCESS:          0  dtHIT:          0  dtMISS:          0
cpu0_ITLB TRANSLATION  ACCESS:          0  HIT:          0  MISS:          0  iACCESS:          0  iHIT:          0  iMISS:          0  dACCESS:          0  dHIT:          0  dMISS:          0  itACCESS:          0  itHIT:          0  itMISS:          0  dtACCESS:          0  dtHIT:          0  dtMISS:          0
cpu0_ITLB PREFETCH  REQUESTED:          0  ISSUED:          0  CROSSED:          0  USEFUL:     316744  USELESS:      64579
cpu0_ITLB AVERAGE iMISS LATENCY: 3.12247 cycles
cpu0_ITLB AVERAGE dMISS LATENCY: 0 cycles
cpu0_ITLB AVERAGE itMISS LATENCY: 0 cycles
cpu0_ITLB AVERAGE dtMISS LATENCY: 0 cycles
cpu0_ITLB PAGE CROSSINGS (TLB HIT):         0 
cpu0_ITLB PAGE CROSSINGS (TLB MISS):         0 
cpu0_ITLB AVERAGE MISS LATENCY: 3.12247 cycles
cpu0_DTLB TOTAL       ACCESS:   27763190  HIT:   25735083  MISS:    2028107  iACCESS:          0  iHIT:          0  iMISS:          0  dACCESS:   27763190  dHIT:   25735083  dMISS:    2028107  itACCESS:          0  itHIT:          0  itMISS:          0  dtACCESS:          0  dtHIT:          0  dtMISS:          0
cpu0_DTLB LOAD         ACCESS:   27763190  HIT:   25735083  MISS:    2028107  iACCESS:          0  iHIT:          0  iMISS:          0  dACCESS:   27763190  dHIT:   25735083  dMISS:    2028107  itACCESS:          0  itHIT:          0  itMISS:          0  dtACCESS:          0  dtHIT:          0  dtMISS:          0
cpu0_DTLB RFO          ACCESS:          0  HIT:          0  MISS:          0  iACCESS:          0  iHIT:          0  iMISS:          0  dACCESS:          0  dHIT:          0  dMISS:          0  itACCESS:          0  itHIT:          0  itMISS:          0  dtACCESS:          0  dtHIT:          0  dtMISS:          0
cpu0_DTLB PREFETCH     ACCESS:          0  HIT:          0  MISS:          0  iACCESS:          0  iHIT:          0  iMISS:          0  dACCESS:          0  dHIT:          0  dMISS:          0  itACCESS:          0  itHIT:          0  itMISS:          0  dtACCESS:          0  dtHIT:          0  dtMISS:          0
cpu0_DTLB WRITE        ACCESS:          0  HIT:          0  MISS:          0  iACCESS:          0  iHIT:          0  iMISS:          0  dACCESS:          0  dHIT:          0  dMISS:          0  itACCESS:          0  itHIT:          0  itMISS:          0  dtACCESS:          0  dtHIT:          0  dtMISS:          0
cpu0_DTLB TRANSLATION  ACCESS:          0  HIT:          0  MISS:          0  iACCESS:          0  iHIT:          0  iMISS:          0  dACCESS:          0  dHIT:          0  dMISS:          0  itACCESS:          0  itHIT:          0  itMISS:          0  dtACCESS:          0  dtHIT:          0  dtMISS:          0
cpu0_DTLB PREFETCH  REQUESTED:          0  ISSUED:          0  CROSSED:          0  USEFUL:          0  USELESS:          0
cpu0_DTLB AVERAGE iMISS LATENCY: 0 cycles
cpu0_DTLB AVERAGE dMISS LATENCY: 9.54342 cycles
cpu0_DTLB AVERAGE itMISS LATENCY: 0 cycles
cpu0_DTLB AVERAGE dtMISS LATENCY: 0 cycles
cpu0_DTLB PAGE CROSSINGS (TLB HIT):         0 
cpu0_DTLB PAGE CROSSINGS (TLB MISS):         0 
cpu0_DTLB AVERAGE MISS LATENCY: 9.54342 cycles
cpu0_STLB TOTAL       ACCESS:    1629395  HIT:    1459854  MISS:     169541  iACCESS:     381351  iHIT:     322297  iMISS:      59054  dACCESS:    1248044  dHIT:    1137557  dMISS:     110487  itACCESS:          0  itHIT:          0  itMISS:          0  dtACCESS:          0  dtHIT:          0  dtMISS:          0
cpu0_STLB LOAD         ACCESS:    1629395  HIT:    1459854  MISS:     169541  iACCESS:     381351  iHIT:     322297  iMISS:      59054  dACCESS:    1248044  dHIT:    1137557  dMISS:     110487  itACCESS:          0  itHIT:          0  itMISS:          0  dtACCESS:          0  dtHIT:          0  dtMISS:          0
cpu0_STLB RFO          ACCESS:          0  HIT:          0  MISS:          0  iACCESS:          0  iHIT:          0  iMISS:          0  dACCESS:          0  dHIT:          0  dMISS:          0  itACCESS:          0  itHIT:          0  itMISS:          0  dtACCESS:          0  dtHIT:          0  dtMISS:          0
cpu0_STLB PREFETCH     ACCESS:          0  HIT:          0  MISS:          0  iACCESS:          0  iHIT:          0  iMISS:          0  dACCESS:          0  dHIT:          0  dMISS:          0  itACCESS:          0  itHIT:          0  itMISS:          0  dtACCESS:          0  dtHIT:          0  dtMISS:          0
cpu0_STLB WRITE        ACCESS:          0  HIT:          0  MISS:          0  iACCESS:          0  iHIT:          0  iMISS:          0  dACCESS:          0  dHIT:          0  dMISS:          0  itACCESS:          0  itHIT:          0  itMISS:          0  dtACCESS:          0  dtHIT:          0  dtMISS:          0
cpu0_STLB TRANSLATION  ACCESS:          0  HIT:          0  MISS:          0  iACCESS:          0  iHIT:          0  iMISS:          0  dACCESS:          0  dHIT:          0  dMISS:          0  itACCESS:          0  itHIT:          0  itMISS:          0  dtACCESS:          0  dtHIT:          0  dtMISS:          0
cpu0_STLB PREFETCH  REQUESTED:          0  ISSUED:          0  CROSSED:          0  USEFUL:          0  USELESS:          0
cpu0_STLB AVERAGE iMISS LATENCY: 17.9541 cycles
cpu0_STLB AVERAGE dMISS LATENCY: 55.5527 cycles
cpu0_STLB AVERAGE itMISS LATENCY: 0 cycles
cpu0_STLB AVERAGE dtMISS LATENCY: 0 cycles
cpu0_STLB PAGE CROSSINGS (TLB HIT):         0 
cpu0_STLB PAGE CROSSINGS (TLB MISS):         0 
cpu0_STLB AVERAGE MISS LATENCY: 73.5068 cycles
cpu0_L1D TOTAL       ACCESS:   41651376  HIT:   38035722  MISS:    3615654  iACCESS:          0  iHIT:          0  iMISS:          0  dACCESS:   41417755  dHIT:   38015503  dMISS:    3402252  itACCESS:      64176  itHIT:       9417  itMISS:      54759  dtACCESS:     169445  dtHIT:      10802  dtMISS:     158643
cpu0_L1D LOAD         ACCESS:   18988271  HIT:   17447543  MISS:    1540728  iACCESS:          0  iHIT:          0  iMISS:          0  dACCESS:   18988271  dHIT:   17447543  dMISS:    1540728  itACCESS:          0  itHIT:          0  itMISS:          0  dtACCESS:          0  dtHIT:          0  dtMISS:          0
cpu0_L1D RFO          ACCESS:          0  HIT:          0  MISS:          0  iACCESS:          0  iHIT:          0  iMISS:          0  dACCESS:          0  dHIT:          0  dMISS:          0  itACCESS:          0  itHIT:          0  itMISS:          0  dtACCESS:          0  dtHIT:          0  dtMISS:          0
cpu0_L1D PREFETCH     ACCESS:   12227945  HIT:   10813163  MISS:    1414782  iACCESS:          0  iHIT:          0  iMISS:          0  dACCESS:   12227945  dHIT:   10813163  dMISS:    1414782  itACCESS:          0  itHIT:          0  itMISS:          0  dtACCESS:          0  dtHIT:          0  dtMISS:          0
cpu0_L1D WRITE        ACCESS:   10201539  HIT:    9754797  MISS:     446742  iACCESS:          0  iHIT:          0  iMISS:          0  dACCESS:   10201539  dHIT:    9754797  dMISS:     446742  itACCESS:          0  itHIT:          0  itMISS:          0  dtACCESS:          0  dtHIT:          0  dtMISS:          0
cpu0_L1D TRANSLATION  ACCESS:     233621  HIT:      20219  MISS:     213402  iACCESS:          0  iHIT:          0  iMISS:          0  dACCESS:          0  dHIT:          0  dMISS:          0  itACCESS:      64176  itHIT:       9417  itMISS:      54759  dtACCESS:     169445  dtHIT:      10802  dtMISS:     158643
cpu0_L1D PREFETCH  REQUESTED:   18988271  ISSUED:   17004166  CROSSED:          0  USEFUL:     306513  USELESS:     701686
cpu0_L1D AVERAGE iMISS LATENCY: 0 cycles
cpu0_L1D AVERAGE dMISS LATENCY: 35.7591 cycles
cpu0_L1D AVERAGE itMISS LATENCY: 0.695561 cycles
cpu0_L1D AVERAGE dtMISS LATENCY: 1.95827 cycles
cpu0_L1D PAGE CROSSINGS (TLB HIT):         0 
cpu0_L1D PAGE CROSSINGS (TLB MISS):         0 
cpu0_L1D AVERAGE MISS LATENCY: 38.413 cycles
cpu0_L2C TOTAL       ACCESS:    7020866  HIT:    1219116  MISS:    5801750  iACCESS:    3315047  iHIT:     693402  iMISS:    2621645  dACCESS:    3504843  dHIT:     379047  dMISS:    3125796  itACCESS:      54759  itHIT:      38725  itMISS:      16034  dtACCESS:     146217  dtHIT:     107942  dtMISS:      38275
cpu0_L2C LOAD         ACCESS:    1711658  HIT:     133094  MISS:    1578564  iACCESS:     781219  iHIT:      96463  iMISS:     684756  dACCESS:     930439  dHIT:      36631  dMISS:     893808  itACCESS:          0  itHIT:          0  itMISS:          0  dtACCESS:          0  dtHIT:          0  dtMISS:          0
cpu0_L2C RFO          ACCESS:     159150  HIT:       8409  MISS:     150741  iACCESS:          0  iHIT:          0  iMISS:          0  dACCESS:     159150  dHIT:       8409  dMISS:     150741  itACCESS:          0  itHIT:          0  itMISS:          0  dtACCESS:          0  dtHIT:          0  dtMISS:          0
cpu0_L2C PREFETCH     ACCESS:    4667221  HIT:     872749  MISS:    3794472  iACCESS:    2533828  iHIT:     596939  iMISS:    1936889  dACCESS:    2133393  dHIT:     275810  dMISS:    1857583  itACCESS:          0  itHIT:          0  itMISS:          0  dtACCESS:          0  dtHIT:          0  dtMISS:          0
cpu0_L2C WRITE        ACCESS:     281861  HIT:      58197  MISS:     223664  iACCESS:          0  iHIT:          0  iMISS:          0  dACCESS:     281861  dHIT:      58197  dMISS:     223664  itACCESS:          0  itHIT:          0  itMISS:          0  dtACCESS:          0  dtHIT:          0  dtMISS:          0
cpu0_L2C TRANSLATION  ACCESS:     200976  HIT:     146667  MISS:      54309  iACCESS:          0  iHIT:          0  iMISS:          0  dACCESS:          0  dHIT:          0  dMISS:          0  itACCESS:      54759  itHIT:      38725  itMISS:      16034  dtACCESS:     146217  dtHIT:     107942  dtMISS:      38275
cpu0_L2C PREFETCH  REQUESTED:    1386228  ISSUED:    1386228  CROSSED:          0  USEFUL:     426627  USELESS:     393019
cpu0_L2C AVERAGE iMISS LATENCY: 15.5724 cycles
cpu0_L2C AVERAGE dMISS LATENCY: 26.2485 cycles
cpu0_L2C AVERAGE itMISS LATENCY: 0.34553 cycles
cpu0_L2C AVERAGE dtMISS LATENCY: 0.985607 cycles
cpu0_L2C PAGE CROSSINGS (TLB HIT):         0 
cpu0_L2C PAGE CROSSINGS (TLB MISS):         0 
cpu0_L2C AVERAGE MISS LATENCY: 43.152 cycles
LLC TOTAL       ACCESS:    5713039  HIT:    4803080  MISS:     909959  iACCESS:    2563389  iHIT:    2285941  iMISS:     277448  dACCESS:    3095341  dHIT:    2500264  dMISS:     595077  itACCESS:      16034  itHIT:       6311  itMISS:       9723  dtACCESS:      38275  dtHIT:      10564  dtMISS:      27711
LLC LOAD         ACCESS:    1575681  HIT:    1366614  MISS:     209067  iACCESS:     683029  iHIT:     623308  iMISS:      59721  dACCESS:     892652  dHIT:     743306  dMISS:     149346  itACCESS:          0  itHIT:          0  itMISS:          0  dtACCESS:          0  dtHIT:          0  dtMISS:          0
LLC RFO          ACCESS:     150735  HIT:     107977  MISS:      42758  iACCESS:          0  iHIT:          0  iMISS:          0  dACCESS:     150735  dHIT:     107977  dMISS:      42758  itACCESS:          0  itHIT:          0  itMISS:          0  dtACCESS:          0  dtHIT:          0  dtMISS:          0
LLC PREFETCH     ACCESS:    3676263  HIT:    3055563  MISS:     620700  iACCESS:    1880360  iHIT:    1662633  iMISS:     217727  dACCESS:    1795903  dHIT:    1392930  dMISS:     402973  itACCESS:          0  itHIT:          0  itMISS:          0  dtACCESS:          0  dtHIT:          0  dtMISS:          0
LLC WRITE        ACCESS:     256051  HIT:     256051  MISS:          0  iACCESS:          0  iHIT:          0  iMISS:          0  dACCESS:     256051  dHIT:     256051  dMISS:          0  itACCESS:          0  itHIT:          0  itMISS:          0  dtACCESS:          0  dtHIT:          0  dtMISS:          0
LLC TRANSLATION  ACCESS:      54309  HIT:      16875  MISS:      37434  iACCESS:          0  iHIT:          0  iMISS:          0  dACCESS:          0  dHIT:          0  dMISS:          0  itACCESS:      16034  itHIT:       6311  itMISS:       9723  dtACCESS:      38275  dtHIT:      10564  dtMISS:      27711
LLC PREFETCH  REQUESTED:          0  ISSUED:          0  CROSSED:          0  USEFUL:          0  USELESS:          0
LLC AVERAGE iMISS LATENCY: 44.9001 cycles
LLC AVERAGE dMISS LATENCY: 107.233 cycles
LLC AVERAGE itMISS LATENCY: 1.85812 cycles
LLC AVERAGE dtMISS LATENCY: 5.45722 cycles
LLC PAGE CROSSINGS (TLB HIT):         0 
LLC PAGE CROSSINGS (TLB MISS):         0 
LLC AVERAGE MISS LATENCY: 159.448 cycles

PageTableWalker TOTAL       ACCESS:      85446  
PageTableWalker AVERAGE LATENCY: 4.27712 cycles
PageTableWalker TOTAL LATENCY: 365462 cycles

DRAM Statistics
Channel 0
 RQ ROW_BUFFER_HIT:     260084
  ROW_BUFFER_MISS:     649173
 AVG DBUS CONGESTED CYCLE:    3.64502
 WQ ROW_BUFFER_HIT:      22455
  ROW_BUFFER_MISS:      29557  FULL:          0

