last_page:0x200000000000000
VMEM_RES_CAP:0x100000
PAGE_SIZE:4096
LOG2_PAGE_SIZE:12
LOG2_PAGE_TABLE_SIZE:9
page_table_levels:5
WARNING: physical memory size is smaller than virtual memory size
FDiP enabled with aggresivity 16

*** ChampSim Multicore Out-of-Order Simulator ***

Warmup Instructions: 50000000
Simulation Instructions: 100000000
Number of CPUs: 1
Small page size: 4096
Large page size: 2097152

CPU 0 Bimodal branch predictor
Basic BTB sets: 1024 ways: 8 indirect buffer size: 4096 RAS size: 64
Instruction page size distrubution: 0
Loading instruction page size distribution from /home/bsc/bsc018186/scratch/itp_asplos25_AE/dump/srv575_ap.pdst
Data page size distrubution: 0
Loading data page size distribution from /home/bsc/bsc018186/scratch/itp_asplos25_AE/dump/srv575_ap.pdst
cpu0_L2C IP-based stride prefetcher
cpu0_L2C is using PTP replacement policy:
	TLB_STRESS_THRESHOLD:0
	PTE_EVICTION_RATIO:0
cpu0_L1D next line prefetcher
CHiRPing...
cpu0_L1I next line prefetcher
Off-chip DRAM Size: 4 GiB Channels: 1 Width: 64-bit Data Rate: 3200 MT/s
Heartbeat CPU 0 instructions: 10000004 cycles: 2584754 heartbeat IPC: 3.86885 cumulative IPC: 3.86885 (Simulation time: 0 hr 0 min 39 sec) 
Heartbeat CPU 0 instructions: 20000000 cycles: 5560076 heartbeat IPC: 3.36098 cumulative IPC: 3.59708 (Simulation time: 0 hr 1 min 21 sec) 
Heartbeat CPU 0 instructions: 30000001 cycles: 8066517 heartbeat IPC: 3.98973 cumulative IPC: 3.71908 (Simulation time: 0 hr 2 min 0 sec) 
Heartbeat CPU 0 instructions: 40000000 cycles: 10570678 heartbeat IPC: 3.99336 cumulative IPC: 3.78406 (Simulation time: 0 hr 2 min 39 sec) 
Heartbeat CPU 0 instructions: 50000002 cycles: 13070685 heartbeat IPC: 3.99999 cumulative IPC: 3.82536 (Simulation time: 0 hr 3 min 20 sec) 
Warmup finished CPU 0 instructions: 50000002 cycles: 13070686 cumulative IPC: 3.82536 (Simulation time: 0 hr 3 min 20 sec) 

Warmup complete CPU 0 instructions: 50000002 cycles: 13070686 (Simulation time: 0 hr 3 min 20 sec) 

Heartbeat CPU 0 instructions: 60000000 cycles: 31050483 heartbeat IPC: 0.55618 cumulative IPC: 0.55618 (Simulation time: 0 hr 4 min 28 sec) 
Heartbeat CPU 0 instructions: 70000000 cycles: 49033905 heartbeat IPC: 0.556068 cumulative IPC: 0.556124 (Simulation time: 0 hr 5 min 37 sec) 
Heartbeat CPU 0 instructions: 80000000 cycles: 68431202 heartbeat IPC: 0.515536 cumulative IPC: 0.541903 (Simulation time: 0 hr 6 min 48 sec) 
Heartbeat CPU 0 instructions: 90000002 cycles: 86666693 heartbeat IPC: 0.548382 cumulative IPC: 0.543508 (Simulation time: 0 hr 7 min 57 sec) 
Heartbeat CPU 0 instructions: 100000002 cycles: 105675895 heartbeat IPC: 0.526062 cumulative IPC: 0.539927 (Simulation time: 0 hr 9 min 7 sec) 
*** Reached end of trace: /gpfs/projects/bsc18/MN4/bsc18/romol/ChampSim/traces/qualcomm_srv/srv575_ap.champsimtrace.xz
Heartbeat CPU 0 instructions: 110000000 cycles: 124720040 heartbeat IPC: 0.525096 cumulative IPC: 0.537397 (Simulation time: 0 hr 10 min 17 sec) 
Heartbeat CPU 0 instructions: 120000002 cycles: 134240753 heartbeat IPC: 1.05035 cumulative IPC: 0.577701 (Simulation time: 0 hr 11 min 18 sec) 
Heartbeat CPU 0 instructions: 130000003 cycles: 144871886 heartbeat IPC: 0.940634 cumulative IPC: 0.606975 (Simulation time: 0 hr 12 min 16 sec) 
Heartbeat CPU 0 instructions: 140000003 cycles: 157345903 heartbeat IPC: 0.801667 cumulative IPC: 0.623808 (Simulation time: 0 hr 13 min 12 sec) 
Heartbeat CPU 0 instructions: 150000003 cycles: 178338371 heartbeat IPC: 0.476362 cumulative IPC: 0.605079 (Simulation time: 0 hr 14 min 24 sec) 
Simulation finished CPU 0 instructions: 100000001 cycles: 165267686 cumulative IPC: 0.605079 (Simulation time: 0 hr 14 min 24 sec) 

Simulation complete CPU 0 instructions: 100000001 cycles: 165267686 (Simulation time: 0 hr 14 min 24 sec) 


ChampSim completed all CPUs

Saving instructions large page distribution to /home/bsc/bsc018186/scratch/itp_asplos25_AE/dump/srv575_ap.pdst...
Saving data large page distribution to /home/bsc/bsc018186/scratch/itp_asplos25_AE/dump/srv575_ap.pdst...
=== Simulation ===
CPU 0 runs /gpfs/projects/bsc18/MN4/bsc18/romol/ChampSim/traces/qualcomm_srv/srv575_ap.champsimtrace.xz

Region of Interest Statistics

CPU 0 cumulative IPC: 0.605079 instructions: 100000001 cycles: 165267686
CPU 0 Branch Prediction Accuracy: 83.2457% MPKI: 32.6887 Average ROB Occupancy at Mispredict: 12.0913
Branch type MPKI
BRANCH_DIRECT_JUMP: 1.02605
BRANCH_INDIRECT: 16.5248
BRANCH_CONDITIONAL: 10.6766
BRANCH_DIRECT_CALL: 1.93528
BRANCH_INDIRECT_CALL: 1.17673
BRANCH_RETURN: 1.34926

Instructions large pages: 0
Instructions small pages: 1748
Large page distribution for instructions: 0%

Data large pages: 0
Data small pages: 6782
Large page distribution for data: 0%

cpu0_L1I TOTAL       ACCESS:   33410689  HIT:   26757331  MISS:    6653358  iACCESS:   33410689  iHIT:   26757331  iMISS:    6653358  dACCESS:          0  dHIT:          0  dMISS:          0  itACCESS:          0  itHIT:          0  itMISS:          0  dtACCESS:          0  dtHIT:          0  dtMISS:          0
cpu0_L1I LOAD         ACCESS:    8501182  HIT:    6663691  MISS:    1837491  iACCESS:    8501182  iHIT:    6663691  iMISS:    1837491  dACCESS:          0  dHIT:          0  dMISS:          0  itACCESS:          0  itHIT:          0  itMISS:          0  dtACCESS:          0  dtHIT:          0  dtMISS:          0
cpu0_L1I RFO          ACCESS:          0  HIT:          0  MISS:          0  iACCESS:          0  iHIT:          0  iMISS:          0  dACCESS:          0  dHIT:          0  dMISS:          0  itACCESS:          0  itHIT:          0  itMISS:          0  dtACCESS:          0  dtHIT:          0  dtMISS:          0
cpu0_L1I PREFETCH     ACCESS:   24909507  HIT:   20093640  MISS:    4815867  iACCESS:   24909507  iHIT:   20093640  iMISS:    4815867  dACCESS:          0  dHIT:          0  dMISS:          0  itACCESS:          0  itHIT:          0  itMISS:          0  dtACCESS:          0  dtHIT:          0  dtMISS:          0
cpu0_L1I WRITE        ACCESS:          0  HIT:          0  MISS:          0  iACCESS:          0  iHIT:          0  iMISS:          0  dACCESS:          0  dHIT:          0  dMISS:          0  itACCESS:          0  itHIT:          0  itMISS:          0  dtACCESS:          0  dtHIT:          0  dtMISS:          0
cpu0_L1I TRANSLATION  ACCESS:          0  HIT:          0  MISS:          0  iACCESS:          0  iHIT:          0  iMISS:          0  dACCESS:          0  dHIT:          0  dMISS:          0  itACCESS:          0  itHIT:          0  itMISS:          0  dtACCESS:          0  dtHIT:          0  dtMISS:          0
cpu0_L1I PREFETCH  REQUESTED:   26769886  ISSUED:   26769213  CROSSED:          0  USEFUL:    1584315  USELESS:     527678
cpu0_L1I AVERAGE iMISS LATENCY: 19.0016 cycles
cpu0_L1I AVERAGE dMISS LATENCY: 0 cycles
cpu0_L1I AVERAGE itMISS LATENCY: 0 cycles
cpu0_L1I AVERAGE dtMISS LATENCY: 0 cycles
cpu0_L1I PAGE CROSSINGS (TLB HIT):         0 
cpu0_L1I PAGE CROSSINGS (TLB MISS):         0 
cpu0_L1I AVERAGE MISS LATENCY: 19.0016 cycles
cpu0_ITLB TOTAL       ACCESS:   28192710  HIT:   26661791  MISS:    1530919  iACCESS:   28192710  iHIT:   26661791  iMISS:    1530919  dACCESS:          0  dHIT:          0  dMISS:          0  itACCESS:          0  itHIT:          0  itMISS:          0  dtACCESS:          0  dtHIT:          0  dtMISS:          0
cpu0_ITLB LOAD         ACCESS:   28192710  HIT:   26661791  MISS:    1530919  iACCESS:   28192710  iHIT:   26661791  iMISS:    1530919  dACCESS:          0  dHIT:          0  dMISS:          0  itACCESS:          0  itHIT:          0  itMISS:          0  dtACCESS:          0  dtHIT:          0  dtMISS:          0
cpu0_ITLB RFO          ACCESS:          0  HIT:          0  MISS:          0  iACCESS:          0  iHIT:          0  iMISS:          0  dACCESS:          0  dHIT:          0  dMISS:          0  itACCESS:          0  itHIT:          0  itMISS:          0  dtACCESS:          0  dtHIT:          0  dtMISS:          0
cpu0_ITLB PREFETCH     ACCESS:          0  HIT:          0  MISS:          0  iACCESS:          0  iHIT:          0  iMISS:          0  dACCESS:          0  dHIT:          0  dMISS:          0  itACCESS:          0  itHIT:          0  itMISS:          0  dtACCESS:          0  dtHIT:          0  dtMISS:          0
cpu0_ITLB WRITE        ACCESS:          0  HIT:          0  MISS:          0  iACCESS:          0  iHIT:          0  iMISS:          0  dACCESS:          0  dHIT:          0  dMISS:          0  itACCESS:          0  itHIT:          0  itMISS:          0  dtACCESS:          0  dtHIT:          0  dtMISS:          0
cpu0_ITLB TRANSLATION  ACCESS:          0  HIT:          0  MISS:          0  iACCESS:          0  iHIT:          0  iMISS:          0  dACCESS:          0  dHIT:          0  dMISS:          0  itACCESS:          0  itHIT:          0  itMISS:          0  dtACCESS:          0  dtHIT:          0  dtMISS:          0
cpu0_ITLB PREFETCH  REQUESTED:          0  ISSUED:          0  CROSSED:          0  USEFUL:     257688  USELESS:      52769
cpu0_ITLB AVERAGE iMISS LATENCY: 4.75159 cycles
cpu0_ITLB AVERAGE dMISS LATENCY: 0 cycles
cpu0_ITLB AVERAGE itMISS LATENCY: 0 cycles
cpu0_ITLB AVERAGE dtMISS LATENCY: 0 cycles
cpu0_ITLB PAGE CROSSINGS (TLB HIT):         0 
cpu0_ITLB PAGE CROSSINGS (TLB MISS):         0 
cpu0_ITLB AVERAGE MISS LATENCY: 4.75159 cycles
cpu0_DTLB TOTAL       ACCESS:   30678458  HIT:   26952696  MISS:    3725762  iACCESS:          0  iHIT:          0  iMISS:          0  dACCESS:   30678458  dHIT:   26952696  dMISS:    3725762  itACCESS:          0  itHIT:          0  itMISS:          0  dtACCESS:          0  dtHIT:          0  dtMISS:          0
cpu0_DTLB LOAD         ACCESS:   30678458  HIT:   26952696  MISS:    3725762  iACCESS:          0  iHIT:          0  iMISS:          0  dACCESS:   30678458  dHIT:   26952696  dMISS:    3725762  itACCESS:          0  itHIT:          0  itMISS:          0  dtACCESS:          0  dtHIT:          0  dtMISS:          0
cpu0_DTLB RFO          ACCESS:          0  HIT:          0  MISS:          0  iACCESS:          0  iHIT:          0  iMISS:          0  dACCESS:          0  dHIT:          0  dMISS:          0  itACCESS:          0  itHIT:          0  itMISS:          0  dtACCESS:          0  dtHIT:          0  dtMISS:          0
cpu0_DTLB PREFETCH     ACCESS:          0  HIT:          0  MISS:          0  iACCESS:          0  iHIT:          0  iMISS:          0  dACCESS:          0  dHIT:          0  dMISS:          0  itACCESS:          0  itHIT:          0  itMISS:          0  dtACCESS:          0  dtHIT:          0  dtMISS:          0
cpu0_DTLB WRITE        ACCESS:          0  HIT:          0  MISS:          0  iACCESS:          0  iHIT:          0  iMISS:          0  dACCESS:          0  dHIT:          0  dMISS:          0  itACCESS:          0  itHIT:          0  itMISS:          0  dtACCESS:          0  dtHIT:          0  dtMISS:          0
cpu0_DTLB TRANSLATION  ACCESS:          0  HIT:          0  MISS:          0  iACCESS:          0  iHIT:          0  iMISS:          0  dACCESS:          0  dHIT:          0  dMISS:          0  itACCESS:          0  itHIT:          0  itMISS:          0  dtACCESS:          0  dtHIT:          0  dtMISS:          0
cpu0_DTLB PREFETCH  REQUESTED:          0  ISSUED:          0  CROSSED:          0  USEFUL:          0  USELESS:          0
cpu0_DTLB AVERAGE iMISS LATENCY: 0 cycles
cpu0_DTLB AVERAGE dMISS LATENCY: 7.47635 cycles
cpu0_DTLB AVERAGE itMISS LATENCY: 0 cycles
cpu0_DTLB AVERAGE dtMISS LATENCY: 0 cycles
cpu0_DTLB PAGE CROSSINGS (TLB HIT):         0 
cpu0_DTLB PAGE CROSSINGS (TLB MISS):         0 
cpu0_DTLB AVERAGE MISS LATENCY: 7.47635 cycles
cpu0_STLB TOTAL       ACCESS:    2280891  HIT:    2107759  MISS:     173132  iACCESS:     310464  iHIT:     244758  iMISS:      65706  dACCESS:    1970427  dHIT:    1863001  dMISS:     107426  itACCESS:          0  itHIT:          0  itMISS:          0  dtACCESS:          0  dtHIT:          0  dtMISS:          0
cpu0_STLB LOAD         ACCESS:    2280891  HIT:    2107759  MISS:     173132  iACCESS:     310464  iHIT:     244758  iMISS:      65706  dACCESS:    1970427  dHIT:    1863001  dMISS:     107426  itACCESS:          0  itHIT:          0  itMISS:          0  dtACCESS:          0  dtHIT:          0  dtMISS:          0
cpu0_STLB RFO          ACCESS:          0  HIT:          0  MISS:          0  iACCESS:          0  iHIT:          0  iMISS:          0  dACCESS:          0  dHIT:          0  dMISS:          0  itACCESS:          0  itHIT:          0  itMISS:          0  dtACCESS:          0  dtHIT:          0  dtMISS:          0
cpu0_STLB PREFETCH     ACCESS:          0  HIT:          0  MISS:          0  iACCESS:          0  iHIT:          0  iMISS:          0  dACCESS:          0  dHIT:          0  dMISS:          0  itACCESS:          0  itHIT:          0  itMISS:          0  dtACCESS:          0  dtHIT:          0  dtMISS:          0
cpu0_STLB WRITE        ACCESS:          0  HIT:          0  MISS:          0  iACCESS:          0  iHIT:          0  iMISS:          0  dACCESS:          0  dHIT:          0  dMISS:          0  itACCESS:          0  itHIT:          0  itMISS:          0  dtACCESS:          0  dtHIT:          0  dtMISS:          0
cpu0_STLB TRANSLATION  ACCESS:          0  HIT:          0  MISS:          0  iACCESS:          0  iHIT:          0  iMISS:          0  dACCESS:          0  dHIT:          0  dMISS:          0  itACCESS:          0  itHIT:          0  itMISS:          0  dtACCESS:          0  dtHIT:          0  dtMISS:          0
cpu0_STLB PREFETCH  REQUESTED:          0  ISSUED:          0  CROSSED:          0  USEFUL:          0  USELESS:          0
cpu0_STLB AVERAGE iMISS LATENCY: 27.7424 cycles
cpu0_STLB AVERAGE dMISS LATENCY: 68.9047 cycles
cpu0_STLB AVERAGE itMISS LATENCY: 0 cycles
cpu0_STLB AVERAGE dtMISS LATENCY: 0 cycles
cpu0_STLB PAGE CROSSINGS (TLB HIT):         0 
cpu0_STLB PAGE CROSSINGS (TLB MISS):         0 
cpu0_STLB AVERAGE MISS LATENCY: 96.647 cycles
cpu0_L1D TOTAL       ACCESS:   47765493  HIT:   40455289  MISS:    7310204  iACCESS:          0  iHIT:          0  iMISS:          0  dACCESS:   47534176  dHIT:   40437334  dMISS:    7096842  itACCESS:      71577  itHIT:       9350  itMISS:      62227  dtACCESS:     159740  dtHIT:       8605  dtMISS:     151135
cpu0_L1D LOAD         ACCESS:   23368123  HIT:   19312813  MISS:    4055310  iACCESS:          0  iHIT:          0  iMISS:          0  dACCESS:   23368123  dHIT:   19312813  dMISS:    4055310  itACCESS:          0  itHIT:          0  itMISS:          0  dtACCESS:          0  dtHIT:          0  dtMISS:          0
cpu0_L1D RFO          ACCESS:          0  HIT:          0  MISS:          0  iACCESS:          0  iHIT:          0  iMISS:          0  dACCESS:          0  dHIT:          0  dMISS:          0  itACCESS:          0  itHIT:          0  itMISS:          0  dtACCESS:          0  dtHIT:          0  dtMISS:          0
cpu0_L1D PREFETCH     ACCESS:   14449797  HIT:   11925613  MISS:    2524184  iACCESS:          0  iHIT:          0  iMISS:          0  dACCESS:   14449797  dHIT:   11925613  dMISS:    2524184  itACCESS:          0  itHIT:          0  itMISS:          0  dtACCESS:          0  dtHIT:          0  dtMISS:          0
cpu0_L1D WRITE        ACCESS:    9716256  HIT:    9198908  MISS:     517348  iACCESS:          0  iHIT:          0  iMISS:          0  dACCESS:    9716256  dHIT:    9198908  dMISS:     517348  itACCESS:          0  itHIT:          0  itMISS:          0  dtACCESS:          0  dtHIT:          0  dtMISS:          0
cpu0_L1D TRANSLATION  ACCESS:     231317  HIT:      17955  MISS:     213362  iACCESS:          0  iHIT:          0  iMISS:          0  dACCESS:          0  dHIT:          0  dMISS:          0  itACCESS:      71577  itHIT:       9350  itMISS:      62227  dtACCESS:     159740  dtHIT:       8605  dtMISS:     151135
cpu0_L1D PREFETCH  REQUESTED:   23368123  ISSUED:   18406657  CROSSED:          0  USEFUL:     269559  USELESS:     767005
cpu0_L1D AVERAGE iMISS LATENCY: 0 cycles
cpu0_L1D AVERAGE dMISS LATENCY: 24.4696 cycles
cpu0_L1D AVERAGE itMISS LATENCY: 0.579083 cycles
cpu0_L1D AVERAGE dtMISS LATENCY: 1.41006 cycles
cpu0_L1D PAGE CROSSINGS (TLB HIT):         0 
cpu0_L1D PAGE CROSSINGS (TLB MISS):         0 
cpu0_L1D AVERAGE MISS LATENCY: 26.4587 cycles
cpu0_L2C TOTAL       ACCESS:    7837738  HIT:    2461079  MISS:    5376659  iACCESS:    2699266  iHIT:     789441  iMISS:    1909825  dACCESS:    4942614  dHIT:    1556370  dMISS:    3386244  itACCESS:      60870  itHIT:      35762  itMISS:      25108  dtACCESS:     134988  dtHIT:      79506  dtMISS:      55482
cpu0_L2C LOAD         ACCESS:    3085284  HIT:    1063699  MISS:    2021585  iACCESS:     615513  iHIT:     143424  iMISS:     472089  dACCESS:    2469771  dHIT:     920275  dMISS:    1549496  itACCESS:          0  itHIT:          0  itMISS:          0  dtACCESS:          0  dtHIT:          0  dtMISS:          0
cpu0_L2C RFO          ACCESS:     170257  HIT:      41484  MISS:     128773  iACCESS:          0  iHIT:          0  iMISS:          0  dACCESS:     170257  dHIT:      41484  dMISS:     128773  itACCESS:          0  itHIT:          0  itMISS:          0  dtACCESS:          0  dtHIT:          0  dtMISS:          0
cpu0_L2C PREFETCH     ACCESS:    4152602  HIT:    1149345  MISS:    3003257  iACCESS:    2083753  iHIT:     646017  iMISS:    1437736  dACCESS:    2068849  dHIT:     503328  dMISS:    1565521  itACCESS:          0  itHIT:          0  itMISS:          0  dtACCESS:          0  dtHIT:          0  dtMISS:          0
cpu0_L2C WRITE        ACCESS:     233737  HIT:      91283  MISS:     142454  iACCESS:          0  iHIT:          0  iMISS:          0  dACCESS:     233737  dHIT:      91283  dMISS:     142454  itACCESS:          0  itHIT:          0  itMISS:          0  dtACCESS:          0  dtHIT:          0  dtMISS:          0
cpu0_L2C TRANSLATION  ACCESS:     195858  HIT:     115268  MISS:      80590  iACCESS:          0  iHIT:          0  iMISS:          0  dACCESS:          0  dHIT:          0  dMISS:          0  itACCESS:      60870  itHIT:      35762  itMISS:      25108  dtACCESS:     134988  dtHIT:      79506  dtMISS:      55482
cpu0_L2C PREFETCH  REQUESTED:    1241362  ISSUED:    1241304  CROSSED:          0  USEFUL:     331193  USELESS:     321180
cpu0_L2C AVERAGE iMISS LATENCY: 19.0452 cycles
cpu0_L2C AVERAGE dMISS LATENCY: 36.1771 cycles
cpu0_L2C AVERAGE itMISS LATENCY: 0.680475 cycles
cpu0_L2C AVERAGE dtMISS LATENCY: 1.67993 cycles
cpu0_L2C PAGE CROSSINGS (TLB HIT):         0 
cpu0_L2C PAGE CROSSINGS (TLB MISS):         0 
cpu0_L2C AVERAGE MISS LATENCY: 57.5826 cycles
LLC TOTAL       ACCESS:    5263570  HIT:    3956989  MISS:    1306581  iACCESS:    1849140  iHIT:    1402629  iMISS:     446511  dACCESS:    3333840  dHIT:    2533574  dMISS:     800266  itACCESS:      25108  itHIT:       7254  itMISS:      17854  dtACCESS:      55482  dtHIT:      13532  dtMISS:      41950
LLC LOAD         ACCESS:    2016145  HIT:    1721122  MISS:     295023  iACCESS:     471095  iHIT:     379203  iMISS:      91892  dACCESS:    1545050  dHIT:    1341919  dMISS:     203131  itACCESS:          0  itHIT:          0  itMISS:          0  dtACCESS:          0  dtHIT:          0  dtMISS:          0
LLC RFO          ACCESS:     128769  HIT:      73939  MISS:      54830  iACCESS:          0  iHIT:          0  iMISS:          0  dACCESS:     128769  dHIT:      73939  dMISS:      54830  itACCESS:          0  itHIT:          0  itMISS:          0  dtACCESS:          0  dtHIT:          0  dtMISS:          0
LLC PREFETCH     ACCESS:    2850227  HIT:    1954709  MISS:     895518  iACCESS:    1378045  iHIT:    1023426  iMISS:     354619  dACCESS:    1472182  dHIT:     931283  dMISS:     540899  itACCESS:          0  itHIT:          0  itMISS:          0  dtACCESS:          0  dtHIT:          0  dtMISS:          0
LLC WRITE        ACCESS:     187839  HIT:     186433  MISS:       1406  iACCESS:          0  iHIT:          0  iMISS:          0  dACCESS:     187839  dHIT:     186433  dMISS:       1406  itACCESS:          0  itHIT:          0  itMISS:          0  dtACCESS:          0  dtHIT:          0  dtMISS:          0
LLC TRANSLATION  ACCESS:      80590  HIT:      20786  MISS:      59804  iACCESS:          0  iHIT:          0  iMISS:          0  dACCESS:          0  dHIT:          0  dMISS:          0  itACCESS:      25108  itHIT:       7254  itMISS:      17854  dtACCESS:      55482  dtHIT:      13532  dtMISS:      41950
LLC PREFETCH  REQUESTED:          0  ISSUED:          0  CROSSED:          0  USEFUL:          0  USELESS:          0
LLC AVERAGE iMISS LATENCY: 50.945 cycles
LLC AVERAGE dMISS LATENCY: 103.572 cycles
LLC AVERAGE itMISS LATENCY: 2.42247 cycles
LLC AVERAGE dtMISS LATENCY: 6.07771 cycles
LLC PAGE CROSSINGS (TLB HIT):         0 
LLC PAGE CROSSINGS (TLB MISS):         0 
LLC AVERAGE MISS LATENCY: 163.017 cycles

PageTableWalker TOTAL       ACCESS:      61154  
PageTableWalker AVERAGE LATENCY: 4.00076 cycles
PageTableWalker TOTAL LATENCY: 244662 cycles

DRAM Statistics
Channel 0
 RQ ROW_BUFFER_HIT:     369329
  ROW_BUFFER_MISS:     922435
 AVG DBUS CONGESTED CYCLE:    3.65451
 WQ ROW_BUFFER_HIT:      31542
  ROW_BUFFER_MISS:      33119  FULL:          0

