last_page:0x200000000000000
VMEM_RES_CAP:0x100000
PAGE_SIZE:4096
LOG2_PAGE_SIZE:12
LOG2_PAGE_TABLE_SIZE:9
page_table_levels:5
WARNING: physical memory size is smaller than virtual memory size
FDiP enabled with aggresivity 16

*** ChampSim Multicore Out-of-Order Simulator ***

Warmup Instructions: 50000000
Simulation Instructions: 100000000
Number of CPUs: 1
Small page size: 4096
Large page size: 2097152

CPU 0 Bimodal branch predictor
Basic BTB sets: 1024 ways: 8 indirect buffer size: 4096 RAS size: 64
Instruction page size distrubution: 0
Loading instruction page size distribution from /home/bsc/bsc018186/scratch/itp_asplos25_AE/dump/srv582_ap.pdst
Data page size distrubution: 0
Loading data page size distribution from /home/bsc/bsc018186/scratch/itp_asplos25_AE/dump/srv582_ap.pdst
cpu0_L2C IP-based stride prefetcher
cpu0_L1D next line prefetcher
CHiRPing...
cpu0_L1I next line prefetcher
Off-chip DRAM Size: 4 GiB Channels: 1 Width: 64-bit Data Rate: 3200 MT/s
Heartbeat CPU 0 instructions: 10000001 cycles: 2500147 heartbeat IPC: 3.99977 cumulative IPC: 3.99977 (Simulation time: 0 hr 0 min 38 sec) 
Heartbeat CPU 0 instructions: 20000001 cycles: 5000229 heartbeat IPC: 3.99987 cumulative IPC: 3.99982 (Simulation time: 0 hr 1 min 19 sec) 
Heartbeat CPU 0 instructions: 30000001 cycles: 7500282 heartbeat IPC: 3.99992 cumulative IPC: 3.99985 (Simulation time: 0 hr 1 min 59 sec) 
Heartbeat CPU 0 instructions: 40000000 cycles: 10000289 heartbeat IPC: 3.99999 cumulative IPC: 3.99989 (Simulation time: 0 hr 2 min 41 sec) 
Heartbeat CPU 0 instructions: 50000002 cycles: 12500331 heartbeat IPC: 3.99994 cumulative IPC: 3.9999 (Simulation time: 0 hr 3 min 22 sec) 
Warmup finished CPU 0 instructions: 50000002 cycles: 12500332 cumulative IPC: 3.9999 (Simulation time: 0 hr 3 min 22 sec) 

Warmup complete CPU 0 instructions: 50000002 cycles: 12500332 (Simulation time: 0 hr 3 min 22 sec) 

Heartbeat CPU 0 instructions: 60000001 cycles: 31569670 heartbeat IPC: 0.524402 cumulative IPC: 0.524403 (Simulation time: 0 hr 4 min 33 sec) 
Heartbeat CPU 0 instructions: 70000001 cycles: 49667394 heartbeat IPC: 0.552556 cumulative IPC: 0.538111 (Simulation time: 0 hr 5 min 42 sec) 
Heartbeat CPU 0 instructions: 80000002 cycles: 67348644 heartbeat IPC: 0.565571 cumulative IPC: 0.546964 (Simulation time: 0 hr 6 min 52 sec) 
Heartbeat CPU 0 instructions: 90000000 cycles: 85775387 heartbeat IPC: 0.54269 cumulative IPC: 0.545889 (Simulation time: 0 hr 8 min 4 sec) 
Heartbeat CPU 0 instructions: 100000002 cycles: 103725498 heartbeat IPC: 0.5571 cumulative IPC: 0.548095 (Simulation time: 0 hr 9 min 16 sec) 
*** Reached end of trace: /gpfs/projects/bsc18/MN4/bsc18/romol/ChampSim/traces/qualcomm_srv/srv582_ap.champsimtrace.xz
Heartbeat CPU 0 instructions: 110000002 cycles: 121337034 heartbeat IPC: 0.56781 cumulative IPC: 0.551285 (Simulation time: 0 hr 10 min 27 sec) 
Heartbeat CPU 0 instructions: 120000000 cycles: 139326921 heartbeat IPC: 0.555868 cumulative IPC: 0.551935 (Simulation time: 0 hr 11 min 38 sec) 
Heartbeat CPU 0 instructions: 130000001 cycles: 157385082 heartbeat IPC: 0.553767 cumulative IPC: 0.552164 (Simulation time: 0 hr 12 min 50 sec) 
Heartbeat CPU 0 instructions: 140000003 cycles: 174913252 heartbeat IPC: 0.570511 cumulative IPC: 0.554144 (Simulation time: 0 hr 14 min 0 sec) 
Heartbeat CPU 0 instructions: 150000001 cycles: 192677685 heartbeat IPC: 0.562923 cumulative IPC: 0.555009 (Simulation time: 0 hr 15 min 11 sec) 
Simulation finished CPU 0 instructions: 100000000 cycles: 180177355 cumulative IPC: 0.555009 (Simulation time: 0 hr 15 min 11 sec) 

Simulation complete CPU 0 instructions: 100000000 cycles: 180177355 (Simulation time: 0 hr 15 min 11 sec) 


ChampSim completed all CPUs

Saving instructions large page distribution to /home/bsc/bsc018186/scratch/itp_asplos25_AE/dump/srv582_ap.pdst...
Saving data large page distribution to /home/bsc/bsc018186/scratch/itp_asplos25_AE/dump/srv582_ap.pdst...
=== Simulation ===
CPU 0 runs /gpfs/projects/bsc18/MN4/bsc18/romol/ChampSim/traces/qualcomm_srv/srv582_ap.champsimtrace.xz

Region of Interest Statistics

CPU 0 cumulative IPC: 0.555009 instructions: 100000000 cycles: 180177355
CPU 0 Branch Prediction Accuracy: 80.4% MPKI: 35.3486 Average ROB Occupancy at Mispredict: 10.3874
Branch type MPKI
BRANCH_DIRECT_JUMP: 1.30405
BRANCH_INDIRECT: 17.6612
BRANCH_CONDITIONAL: 11.5138
BRANCH_DIRECT_CALL: 2.45732
BRANCH_INDIRECT_CALL: 0.691691
BRANCH_RETURN: 1.72065

Instructions large pages: 0
Instructions small pages: 1097
Large page distribution for instructions: 0%

Data large pages: 0
Data small pages: 4776
Large page distribution for data: 0%

cpu0_L1I TOTAL       ACCESS:   35698182  HIT:   27399034  MISS:    8299148  iACCESS:   35698182  iHIT:   27399034  iMISS:    8299148  dACCESS:          0  dHIT:          0  dMISS:          0  itACCESS:          0  itHIT:          0  itMISS:          0  dtACCESS:          0  dtHIT:          0  dtMISS:          0
cpu0_L1I LOAD         ACCESS:   10288388  HIT:    8012861  MISS:    2275527  iACCESS:   10288388  iHIT:    8012861  iMISS:    2275527  dACCESS:          0  dHIT:          0  dMISS:          0  itACCESS:          0  itHIT:          0  itMISS:          0  dtACCESS:          0  dtHIT:          0  dtMISS:          0
cpu0_L1I RFO          ACCESS:          0  HIT:          0  MISS:          0  iACCESS:          0  iHIT:          0  iMISS:          0  dACCESS:          0  dHIT:          0  dMISS:          0  itACCESS:          0  itHIT:          0  itMISS:          0  dtACCESS:          0  dtHIT:          0  dtMISS:          0
cpu0_L1I PREFETCH     ACCESS:   25409794  HIT:   19386173  MISS:    6023621  iACCESS:   25409794  iHIT:   19386173  iMISS:    6023621  dACCESS:          0  dHIT:          0  dMISS:          0  itACCESS:          0  itHIT:          0  itMISS:          0  dtACCESS:          0  dtHIT:          0  dtMISS:          0
cpu0_L1I WRITE        ACCESS:          0  HIT:          0  MISS:          0  iACCESS:          0  iHIT:          0  iMISS:          0  dACCESS:          0  dHIT:          0  dMISS:          0  itACCESS:          0  itHIT:          0  itMISS:          0  dtACCESS:          0  dtHIT:          0  dtMISS:          0
cpu0_L1I TRANSLATION  ACCESS:          0  HIT:          0  MISS:          0  iACCESS:          0  iHIT:          0  iMISS:          0  dACCESS:          0  dHIT:          0  dMISS:          0  itACCESS:          0  itHIT:          0  itMISS:          0  dtACCESS:          0  dtHIT:          0  dtMISS:          0
cpu0_L1I PREFETCH  REQUESTED:   27613157  ISSUED:   27612384  CROSSED:          0  USEFUL:    1972012  USELESS:     651518
cpu0_L1I AVERAGE iMISS LATENCY: 18.386 cycles
cpu0_L1I AVERAGE dMISS LATENCY: 0 cycles
cpu0_L1I AVERAGE itMISS LATENCY: 0 cycles
cpu0_L1I AVERAGE dtMISS LATENCY: 0 cycles
cpu0_L1I PAGE CROSSINGS (TLB HIT):         0 
cpu0_L1I PAGE CROSSINGS (TLB MISS):         0 
cpu0_L1I AVERAGE MISS LATENCY: 18.386 cycles
cpu0_ITLB TOTAL       ACCESS:   29881280  HIT:   27948166  MISS:    1933114  iACCESS:   29881280  iHIT:   27948166  iMISS:    1933114  dACCESS:          0  dHIT:          0  dMISS:          0  itACCESS:          0  itHIT:          0  itMISS:          0  dtACCESS:          0  dtHIT:          0  dtMISS:          0
cpu0_ITLB LOAD         ACCESS:   29881280  HIT:   27948166  MISS:    1933114  iACCESS:   29881280  iHIT:   27948166  iMISS:    1933114  dACCESS:          0  dHIT:          0  dMISS:          0  itACCESS:          0  itHIT:          0  itMISS:          0  dtACCESS:          0  dtHIT:          0  dtMISS:          0
cpu0_ITLB RFO          ACCESS:          0  HIT:          0  MISS:          0  iACCESS:          0  iHIT:          0  iMISS:          0  dACCESS:          0  dHIT:          0  dMISS:          0  itACCESS:          0  itHIT:          0  itMISS:          0  dtACCESS:          0  dtHIT:          0  dtMISS:          0
cpu0_ITLB PREFETCH     ACCESS:          0  HIT:          0  MISS:          0  iACCESS:          0  iHIT:          0  iMISS:          0  dACCESS:          0  dHIT:          0  dMISS:          0  itACCESS:          0  itHIT:          0  itMISS:          0  dtACCESS:          0  dtHIT:          0  dtMISS:          0
cpu0_ITLB WRITE        ACCESS:          0  HIT:          0  MISS:          0  iACCESS:          0  iHIT:          0  iMISS:          0  dACCESS:          0  dHIT:          0  dMISS:          0  itACCESS:          0  itHIT:          0  itMISS:          0  dtACCESS:          0  dtHIT:          0  dtMISS:          0
cpu0_ITLB TRANSLATION  ACCESS:          0  HIT:          0  MISS:          0  iACCESS:          0  iHIT:          0  iMISS:          0  dACCESS:          0  dHIT:          0  dMISS:          0  itACCESS:          0  itHIT:          0  itMISS:          0  dtACCESS:          0  dtHIT:          0  dtMISS:          0
cpu0_ITLB PREFETCH  REQUESTED:          0  ISSUED:          0  CROSSED:          0  USEFUL:     330180  USELESS:      60728
cpu0_ITLB AVERAGE iMISS LATENCY: 3.93153 cycles
cpu0_ITLB AVERAGE dMISS LATENCY: 0 cycles
cpu0_ITLB AVERAGE itMISS LATENCY: 0 cycles
cpu0_ITLB AVERAGE dtMISS LATENCY: 0 cycles
cpu0_ITLB PAGE CROSSINGS (TLB HIT):         0 
cpu0_ITLB PAGE CROSSINGS (TLB MISS):         0 
cpu0_ITLB AVERAGE MISS LATENCY: 3.93153 cycles
cpu0_DTLB TOTAL       ACCESS:   28013114  HIT:   26028808  MISS:    1984306  iACCESS:          0  iHIT:          0  iMISS:          0  dACCESS:   28013114  dHIT:   26028808  dMISS:    1984306  itACCESS:          0  itHIT:          0  itMISS:          0  dtACCESS:          0  dtHIT:          0  dtMISS:          0
cpu0_DTLB LOAD         ACCESS:   28013114  HIT:   26028808  MISS:    1984306  iACCESS:          0  iHIT:          0  iMISS:          0  dACCESS:   28013114  dHIT:   26028808  dMISS:    1984306  itACCESS:          0  itHIT:          0  itMISS:          0  dtACCESS:          0  dtHIT:          0  dtMISS:          0
cpu0_DTLB RFO          ACCESS:          0  HIT:          0  MISS:          0  iACCESS:          0  iHIT:          0  iMISS:          0  dACCESS:          0  dHIT:          0  dMISS:          0  itACCESS:          0  itHIT:          0  itMISS:          0  dtACCESS:          0  dtHIT:          0  dtMISS:          0
cpu0_DTLB PREFETCH     ACCESS:          0  HIT:          0  MISS:          0  iACCESS:          0  iHIT:          0  iMISS:          0  dACCESS:          0  dHIT:          0  dMISS:          0  itACCESS:          0  itHIT:          0  itMISS:          0  dtACCESS:          0  dtHIT:          0  dtMISS:          0
cpu0_DTLB WRITE        ACCESS:          0  HIT:          0  MISS:          0  iACCESS:          0  iHIT:          0  iMISS:          0  dACCESS:          0  dHIT:          0  dMISS:          0  itACCESS:          0  itHIT:          0  itMISS:          0  dtACCESS:          0  dtHIT:          0  dtMISS:          0
cpu0_DTLB TRANSLATION  ACCESS:          0  HIT:          0  MISS:          0  iACCESS:          0  iHIT:          0  iMISS:          0  dACCESS:          0  dHIT:          0  dMISS:          0  itACCESS:          0  itHIT:          0  itMISS:          0  dtACCESS:          0  dtHIT:          0  dtMISS:          0
cpu0_DTLB PREFETCH  REQUESTED:          0  ISSUED:          0  CROSSED:          0  USEFUL:          0  USELESS:          0
cpu0_DTLB AVERAGE iMISS LATENCY: 0 cycles
cpu0_DTLB AVERAGE dMISS LATENCY: 11.6696 cycles
cpu0_DTLB AVERAGE itMISS LATENCY: 0 cycles
cpu0_DTLB AVERAGE dtMISS LATENCY: 0 cycles
cpu0_DTLB PAGE CROSSINGS (TLB HIT):         0 
cpu0_DTLB PAGE CROSSINGS (TLB MISS):         0 
cpu0_DTLB AVERAGE MISS LATENCY: 11.6696 cycles
cpu0_STLB TOTAL       ACCESS:    1602482  HIT:    1369343  MISS:     233139  iACCESS:     390927  iHIT:     302667  iMISS:      88260  dACCESS:    1211555  dHIT:    1066676  dMISS:     144879  itACCESS:          0  itHIT:          0  itMISS:          0  dtACCESS:          0  dtHIT:          0  dtMISS:          0
cpu0_STLB LOAD         ACCESS:    1602482  HIT:    1369343  MISS:     233139  iACCESS:     390927  iHIT:     302667  iMISS:      88260  dACCESS:    1211555  dHIT:    1066676  dMISS:     144879  itACCESS:          0  itHIT:          0  itMISS:          0  dtACCESS:          0  dtHIT:          0  dtMISS:          0
cpu0_STLB RFO          ACCESS:          0  HIT:          0  MISS:          0  iACCESS:          0  iHIT:          0  iMISS:          0  dACCESS:          0  dHIT:          0  dMISS:          0  itACCESS:          0  itHIT:          0  itMISS:          0  dtACCESS:          0  dtHIT:          0  dtMISS:          0
cpu0_STLB PREFETCH     ACCESS:          0  HIT:          0  MISS:          0  iACCESS:          0  iHIT:          0  iMISS:          0  dACCESS:          0  dHIT:          0  dMISS:          0  itACCESS:          0  itHIT:          0  itMISS:          0  dtACCESS:          0  dtHIT:          0  dtMISS:          0
cpu0_STLB WRITE        ACCESS:          0  HIT:          0  MISS:          0  iACCESS:          0  iHIT:          0  iMISS:          0  dACCESS:          0  dHIT:          0  dMISS:          0  itACCESS:          0  itHIT:          0  itMISS:          0  dtACCESS:          0  dtHIT:          0  dtMISS:          0
cpu0_STLB TRANSLATION  ACCESS:          0  HIT:          0  MISS:          0  iACCESS:          0  iHIT:          0  iMISS:          0  dACCESS:          0  dHIT:          0  dMISS:          0  itACCESS:          0  itHIT:          0  itMISS:          0  dtACCESS:          0  dtHIT:          0  dtMISS:          0
cpu0_STLB PREFETCH  REQUESTED:          0  ISSUED:          0  CROSSED:          0  USEFUL:          0  USELESS:          0
cpu0_STLB AVERAGE iMISS LATENCY: 19.2257 cycles
cpu0_STLB AVERAGE dMISS LATENCY: 57.7801 cycles
cpu0_STLB AVERAGE itMISS LATENCY: 0 cycles
cpu0_STLB AVERAGE dtMISS LATENCY: 0 cycles
cpu0_STLB PAGE CROSSINGS (TLB HIT):         0 
cpu0_STLB PAGE CROSSINGS (TLB MISS):         0 
cpu0_STLB AVERAGE MISS LATENCY: 77.0058 cycles
cpu0_L1D TOTAL       ACCESS:   42533314  HIT:   38486135  MISS:    4047179  iACCESS:          0  iHIT:          0  iMISS:          0  dACCESS:   42240779  dHIT:   38458516  dMISS:    3782263  itACCESS:      94809  itHIT:      15222  itMISS:      79587  dtACCESS:     197726  dtHIT:      12397  dtMISS:     185329
cpu0_L1D LOAD         ACCESS:   19351743  HIT:   17623661  MISS:    1728082  iACCESS:          0  iHIT:          0  iMISS:          0  dACCESS:   19351743  dHIT:   17623661  dMISS:    1728082  itACCESS:          0  itHIT:          0  itMISS:          0  dtACCESS:          0  dtHIT:          0  dtMISS:          0
cpu0_L1D RFO          ACCESS:          0  HIT:          0  MISS:          0  iACCESS:          0  iHIT:          0  iMISS:          0  dACCESS:          0  dHIT:          0  dMISS:          0  itACCESS:          0  itHIT:          0  itMISS:          0  dtACCESS:          0  dtHIT:          0  dtMISS:          0
cpu0_L1D PREFETCH     ACCESS:   12739724  HIT:   11141126  MISS:    1598598  iACCESS:          0  iHIT:          0  iMISS:          0  dACCESS:   12739724  dHIT:   11141126  dMISS:    1598598  itACCESS:          0  itHIT:          0  itMISS:          0  dtACCESS:          0  dtHIT:          0  dtMISS:          0
cpu0_L1D WRITE        ACCESS:   10149312  HIT:    9693729  MISS:     455583  iACCESS:          0  iHIT:          0  iMISS:          0  dACCESS:   10149312  dHIT:    9693729  dMISS:     455583  itACCESS:          0  itHIT:          0  itMISS:          0  dtACCESS:          0  dtHIT:          0  dtMISS:          0
cpu0_L1D TRANSLATION  ACCESS:     292535  HIT:      27619  MISS:     264916  iACCESS:          0  iHIT:          0  iMISS:          0  dACCESS:          0  dHIT:          0  dMISS:          0  itACCESS:      94809  itHIT:      15222  itMISS:      79587  dtACCESS:     197726  dtHIT:      12397  dtMISS:     185329
cpu0_L1D PREFETCH  REQUESTED:   19351743  ISSUED:   17354522  CROSSED:          0  USEFUL:     311579  USELESS:     708451
cpu0_L1D AVERAGE iMISS LATENCY: 0 cycles
cpu0_L1D AVERAGE dMISS LATENCY: 39.2502 cycles
cpu0_L1D AVERAGE itMISS LATENCY: 0.917427 cycles
cpu0_L1D AVERAGE dtMISS LATENCY: 2.83611 cycles
cpu0_L1D PAGE CROSSINGS (TLB HIT):         0 
cpu0_L1D PAGE CROSSINGS (TLB MISS):         0 
cpu0_L1D AVERAGE MISS LATENCY: 43.0037 cycles
cpu0_L2C TOTAL       ACCESS:    7254690  HIT:    1636725  MISS:    5617965  iACCESS:    3345774  iHIT:     827448  iMISS:    2518326  dACCESS:    3647741  dHIT:     648520  dMISS:    2999221  itACCESS:      79587  itHIT:      57365  itMISS:      22222  dtACCESS:     181588  dtHIT:     103392  dtMISS:      78196
cpu0_L2C LOAD         ACCESS:    1711853  HIT:     253900  MISS:    1457953  iACCESS:     758769  iHIT:     133105  iMISS:     625664  dACCESS:     953084  dHIT:     120795  dMISS:     832289  itACCESS:          0  itHIT:          0  itMISS:          0  dtACCESS:          0  dtHIT:          0  dtMISS:          0
cpu0_L2C RFO          ACCESS:     166720  HIT:      43986  MISS:     122734  iACCESS:          0  iHIT:          0  iMISS:          0  dACCESS:     166720  dHIT:      43986  dMISS:     122734  itACCESS:          0  itHIT:          0  itMISS:          0  dtACCESS:          0  dtHIT:          0  dtMISS:          0
cpu0_L2C PREFETCH     ACCESS:    4838786  HIT:    1059793  MISS:    3778993  iACCESS:    2587005  iHIT:     694343  iMISS:    1892662  dACCESS:    2251781  dHIT:     365450  dMISS:    1886331  itACCESS:          0  itHIT:          0  itMISS:          0  dtACCESS:          0  dtHIT:          0  dtMISS:          0
cpu0_L2C WRITE        ACCESS:     276156  HIT:     118289  MISS:     157867  iACCESS:          0  iHIT:          0  iMISS:          0  dACCESS:     276156  dHIT:     118289  dMISS:     157867  itACCESS:          0  itHIT:          0  itMISS:          0  dtACCESS:          0  dtHIT:          0  dtMISS:          0
cpu0_L2C TRANSLATION  ACCESS:     261175  HIT:     160757  MISS:     100418  iACCESS:          0  iHIT:          0  iMISS:          0  dACCESS:          0  dHIT:          0  dMISS:          0  itACCESS:      79587  itHIT:      57365  itMISS:      22222  dtACCESS:     181588  dtHIT:     103392  dtMISS:      78196
cpu0_L2C PREFETCH  REQUESTED:    1488449  ISSUED:    1488423  CROSSED:          0  USEFUL:     406748  USELESS:     431439
cpu0_L2C AVERAGE iMISS LATENCY: 21.8031 cycles
cpu0_L2C AVERAGE dMISS LATENCY: 35.571 cycles
cpu0_L2C AVERAGE itMISS LATENCY: 0.529056 cycles
cpu0_L2C AVERAGE dtMISS LATENCY: 1.73711 cycles
cpu0_L2C PAGE CROSSINGS (TLB HIT):         0 
cpu0_L2C PAGE CROSSINGS (TLB MISS):         0 
cpu0_L2C AVERAGE MISS LATENCY: 59.6402 cycles
LLC TOTAL       ACCESS:    5440312  HIT:    3945536  MISS:    1494776  iACCESS:    2443244  iHIT:    1922357  iMISS:     520887  dACCESS:    2896650  dHIT:    1982149  dMISS:     914501  itACCESS:      22222  itHIT:       7600  itMISS:      14622  dtACCESS:      78196  dtHIT:      33430  dtMISS:      44766
LLC LOAD         ACCESS:    1451217  HIT:    1121893  MISS:     329324  iACCESS:     624064  iHIT:     517161  iMISS:     106903  dACCESS:     827153  dHIT:     604732  dMISS:     222421  itACCESS:          0  itHIT:          0  itMISS:          0  dtACCESS:          0  dtHIT:          0  dtMISS:          0
LLC RFO          ACCESS:     122734  HIT:      66105  MISS:      56629  iACCESS:          0  iHIT:          0  iMISS:          0  dACCESS:     122734  dHIT:      66105  dMISS:      56629  itACCESS:          0  itHIT:          0  itMISS:          0  dtACCESS:          0  dtHIT:          0  dtMISS:          0
LLC PREFETCH     ACCESS:    3612266  HIT:    2572937  MISS:    1039329  iACCESS:    1819180  iHIT:    1405196  iMISS:     413984  dACCESS:    1793086  dHIT:    1167741  dMISS:     625345  itACCESS:          0  itHIT:          0  itMISS:          0  dtACCESS:          0  dtHIT:          0  dtMISS:          0
LLC WRITE        ACCESS:     153677  HIT:     143571  MISS:      10106  iACCESS:          0  iHIT:          0  iMISS:          0  dACCESS:     153677  dHIT:     143571  dMISS:      10106  itACCESS:          0  itHIT:          0  itMISS:          0  dtACCESS:          0  dtHIT:          0  dtMISS:          0
LLC TRANSLATION  ACCESS:     100418  HIT:      41030  MISS:      59388  iACCESS:          0  iHIT:          0  iMISS:          0  dACCESS:          0  dHIT:          0  dMISS:          0  itACCESS:      22222  itHIT:       7600  itMISS:      14622  dtACCESS:      78196  dtHIT:      33430  dtMISS:      44766
LLC PREFETCH  REQUESTED:          0  ISSUED:          0  CROSSED:          0  USEFUL:          0  USELESS:          0
LLC AVERAGE iMISS LATENCY: 50.3004 cycles
LLC AVERAGE dMISS LATENCY: 98.9562 cycles
LLC AVERAGE itMISS LATENCY: 1.69681 cycles
LLC AVERAGE dtMISS LATENCY: 5.50621 cycles
LLC PAGE CROSSINGS (TLB HIT):         0 
LLC PAGE CROSSINGS (TLB MISS):         0 
LLC AVERAGE MISS LATENCY: 156.46 cycles

PageTableWalker TOTAL       ACCESS:     118350  
PageTableWalker AVERAGE LATENCY: 4.14525 cycles
PageTableWalker TOTAL LATENCY: 490590 cycles

DRAM Statistics
Channel 0
 RQ ROW_BUFFER_HIT:     448482
  ROW_BUFFER_MISS:    1026392
 AVG DBUS CONGESTED CYCLE:    3.63392
 WQ ROW_BUFFER_HIT:      30582
  ROW_BUFFER_MISS:      25598  FULL:          0

