last_page:0x200000000000000
VMEM_RES_CAP:0x100000
PAGE_SIZE:4096
LOG2_PAGE_SIZE:12
LOG2_PAGE_TABLE_SIZE:9
page_table_levels:5
WARNING: physical memory size is smaller than virtual memory size
FDiP enabled with aggresivity 16

*** ChampSim Multicore Out-of-Order Simulator ***

Warmup Instructions: 50000000
Simulation Instructions: 100000000
Number of CPUs: 1
Small page size: 4096
Large page size: 2097152

CPU 0 Bimodal branch predictor
Basic BTB sets: 1024 ways: 8 indirect buffer size: 4096 RAS size: 64
Instruction page size distrubution: 0
Loading instruction page size distribution from /home/bsc/bsc018186/scratch/itp_asplos25_AE/dump/srv566_ap.pdst
Data page size distrubution: 0
Loading data page size distribution from /home/bsc/bsc018186/scratch/itp_asplos25_AE/dump/srv566_ap.pdst
cpu0_L2C IP-based stride prefetcher
cpu0_L1D next line prefetcher
CHiRPing...
cpu0_L1I next line prefetcher
Off-chip DRAM Size: 4 GiB Channels: 1 Width: 64-bit Data Rate: 3200 MT/s
Heartbeat CPU 0 instructions: 10000003 cycles: 2500224 heartbeat IPC: 3.99965 cumulative IPC: 3.99965 (Simulation time: 0 hr 0 min 39 sec) 
Heartbeat CPU 0 instructions: 20000001 cycles: 5000233 heartbeat IPC: 3.99999 cumulative IPC: 3.99982 (Simulation time: 0 hr 1 min 20 sec) 
Heartbeat CPU 0 instructions: 30000002 cycles: 7500306 heartbeat IPC: 3.99989 cumulative IPC: 3.99984 (Simulation time: 0 hr 2 min 2 sec) 
Heartbeat CPU 0 instructions: 40000002 cycles: 10000309 heartbeat IPC: 4 cumulative IPC: 3.99988 (Simulation time: 0 hr 2 min 43 sec) 
Heartbeat CPU 0 instructions: 50000003 cycles: 12500344 heartbeat IPC: 3.99995 cumulative IPC: 3.9999 (Simulation time: 0 hr 3 min 25 sec) 
Warmup finished CPU 0 instructions: 50000003 cycles: 12500345 cumulative IPC: 3.99989 (Simulation time: 0 hr 3 min 25 sec) 

Warmup complete CPU 0 instructions: 50000003 cycles: 12500345 (Simulation time: 0 hr 3 min 25 sec) 

Heartbeat CPU 0 instructions: 60000000 cycles: 27017203 heartbeat IPC: 0.688855 cumulative IPC: 0.688855 (Simulation time: 0 hr 4 min 32 sec) 
Heartbeat CPU 0 instructions: 70000002 cycles: 41260403 heartbeat IPC: 0.70209 cumulative IPC: 0.695409 (Simulation time: 0 hr 5 min 38 sec) 
Heartbeat CPU 0 instructions: 80000001 cycles: 54528555 heartbeat IPC: 0.753685 cumulative IPC: 0.713807 (Simulation time: 0 hr 6 min 42 sec) 
Heartbeat CPU 0 instructions: 90000003 cycles: 68391593 heartbeat IPC: 0.721343 cumulative IPC: 0.715676 (Simulation time: 0 hr 7 min 46 sec) 
Heartbeat CPU 0 instructions: 100000001 cycles: 82193429 heartbeat IPC: 0.724542 cumulative IPC: 0.717432 (Simulation time: 0 hr 8 min 51 sec) 
*** Reached end of trace: /gpfs/projects/bsc18/MN4/bsc18/romol/ChampSim/traces/qualcomm_srv/srv566_ap.champsimtrace.xz
Heartbeat CPU 0 instructions: 110000000 cycles: 96096204 heartbeat IPC: 0.719281 cumulative IPC: 0.717739 (Simulation time: 0 hr 9 min 56 sec) 
Heartbeat CPU 0 instructions: 120000001 cycles: 109296207 heartbeat IPC: 0.757576 cumulative IPC: 0.723172 (Simulation time: 0 hr 11 min 1 sec) 
Heartbeat CPU 0 instructions: 130000000 cycles: 123179727 heartbeat IPC: 0.720279 cumulative IPC: 0.722809 (Simulation time: 0 hr 12 min 7 sec) 
Heartbeat CPU 0 instructions: 140000001 cycles: 137047475 heartbeat IPC: 0.721098 cumulative IPC: 0.722619 (Simulation time: 0 hr 13 min 12 sec) 
Heartbeat CPU 0 instructions: 150000003 cycles: 150624647 heartbeat IPC: 0.736531 cumulative IPC: 0.723986 (Simulation time: 0 hr 14 min 18 sec) 
Simulation finished CPU 0 instructions: 100000000 cycles: 138124303 cumulative IPC: 0.723986 (Simulation time: 0 hr 14 min 18 sec) 

Simulation complete CPU 0 instructions: 100000000 cycles: 138124303 (Simulation time: 0 hr 14 min 18 sec) 


ChampSim completed all CPUs

Saving instructions large page distribution to /home/bsc/bsc018186/scratch/itp_asplos25_AE/dump/srv566_ap.pdst...
Saving data large page distribution to /home/bsc/bsc018186/scratch/itp_asplos25_AE/dump/srv566_ap.pdst...
=== Simulation ===
CPU 0 runs /gpfs/projects/bsc18/MN4/bsc18/romol/ChampSim/traces/qualcomm_srv/srv566_ap.champsimtrace.xz

Region of Interest Statistics

CPU 0 cumulative IPC: 0.723986 instructions: 100000000 cycles: 138124303
CPU 0 Branch Prediction Accuracy: 83.449% MPKI: 29.7364 Average ROB Occupancy at Mispredict: 12.2428
Branch type MPKI
BRANCH_DIRECT_JUMP: 0.948671
BRANCH_INDIRECT: 15.4368
BRANCH_CONDITIONAL: 9.7205
BRANCH_DIRECT_CALL: 1.81322
BRANCH_INDIRECT_CALL: 0.497481
BRANCH_RETURN: 1.31977

Instructions large pages: 0
Instructions small pages: 9767
Large page distribution for instructions: 0%

Data large pages: 0
Data small pages: 8906
Large page distribution for data: 0%

cpu0_L1I TOTAL       ACCESS:   35096457  HIT:   26601132  MISS:    8495325  iACCESS:   35096457  iHIT:   26601132  iMISS:    8495325  dACCESS:          0  dHIT:          0  dMISS:          0  itACCESS:          0  itHIT:          0  itMISS:          0  dtACCESS:          0  dtHIT:          0  dtMISS:          0
cpu0_L1I LOAD         ACCESS:   10222198  HIT:    7847217  MISS:    2374981  iACCESS:   10222198  iHIT:    7847217  iMISS:    2374981  dACCESS:          0  dHIT:          0  dMISS:          0  itACCESS:          0  itHIT:          0  itMISS:          0  dtACCESS:          0  dtHIT:          0  dtMISS:          0
cpu0_L1I RFO          ACCESS:          0  HIT:          0  MISS:          0  iACCESS:          0  iHIT:          0  iMISS:          0  dACCESS:          0  dHIT:          0  dMISS:          0  itACCESS:          0  itHIT:          0  itMISS:          0  dtACCESS:          0  dtHIT:          0  dtMISS:          0
cpu0_L1I PREFETCH     ACCESS:   24874259  HIT:   18753915  MISS:    6120344  iACCESS:   24874259  iHIT:   18753915  iMISS:    6120344  dACCESS:          0  dHIT:          0  dMISS:          0  itACCESS:          0  itHIT:          0  itMISS:          0  dtACCESS:          0  dtHIT:          0  dtMISS:          0
cpu0_L1I WRITE        ACCESS:          0  HIT:          0  MISS:          0  iACCESS:          0  iHIT:          0  iMISS:          0  dACCESS:          0  dHIT:          0  dMISS:          0  itACCESS:          0  itHIT:          0  itMISS:          0  dtACCESS:          0  dtHIT:          0  dtMISS:          0
cpu0_L1I TRANSLATION  ACCESS:          0  HIT:          0  MISS:          0  iACCESS:          0  iHIT:          0  iMISS:          0  dACCESS:          0  dHIT:          0  dMISS:          0  itACCESS:          0  itHIT:          0  itMISS:          0  dtACCESS:          0  dtHIT:          0  dtMISS:          0
cpu0_L1I PREFETCH  REQUESTED:   27123583  ISSUED:   27121160  CROSSED:          0  USEFUL:    1933050  USELESS:     637570
cpu0_L1I AVERAGE iMISS LATENCY: 12.9984 cycles
cpu0_L1I AVERAGE dMISS LATENCY: 0 cycles
cpu0_L1I AVERAGE itMISS LATENCY: 0 cycles
cpu0_L1I AVERAGE dtMISS LATENCY: 0 cycles
cpu0_L1I PAGE CROSSINGS (TLB HIT):         0 
cpu0_L1I PAGE CROSSINGS (TLB MISS):         0 
cpu0_L1I AVERAGE MISS LATENCY: 12.9984 cycles
cpu0_ITLB TOTAL       ACCESS:   29044932  HIT:   27056147  MISS:    1988785  iACCESS:   29044932  iHIT:   27056147  iMISS:    1988785  dACCESS:          0  dHIT:          0  dMISS:          0  itACCESS:          0  itHIT:          0  itMISS:          0  dtACCESS:          0  dtHIT:          0  dtMISS:          0
cpu0_ITLB LOAD         ACCESS:   29044932  HIT:   27056147  MISS:    1988785  iACCESS:   29044932  iHIT:   27056147  iMISS:    1988785  dACCESS:          0  dHIT:          0  dMISS:          0  itACCESS:          0  itHIT:          0  itMISS:          0  dtACCESS:          0  dtHIT:          0  dtMISS:          0
cpu0_ITLB RFO          ACCESS:          0  HIT:          0  MISS:          0  iACCESS:          0  iHIT:          0  iMISS:          0  dACCESS:          0  dHIT:          0  dMISS:          0  itACCESS:          0  itHIT:          0  itMISS:          0  dtACCESS:          0  dtHIT:          0  dtMISS:          0
cpu0_ITLB PREFETCH     ACCESS:          0  HIT:          0  MISS:          0  iACCESS:          0  iHIT:          0  iMISS:          0  dACCESS:          0  dHIT:          0  dMISS:          0  itACCESS:          0  itHIT:          0  itMISS:          0  dtACCESS:          0  dtHIT:          0  dtMISS:          0
cpu0_ITLB WRITE        ACCESS:          0  HIT:          0  MISS:          0  iACCESS:          0  iHIT:          0  iMISS:          0  dACCESS:          0  dHIT:          0  dMISS:          0  itACCESS:          0  itHIT:          0  itMISS:          0  dtACCESS:          0  dtHIT:          0  dtMISS:          0
cpu0_ITLB TRANSLATION  ACCESS:          0  HIT:          0  MISS:          0  iACCESS:          0  iHIT:          0  iMISS:          0  dACCESS:          0  dHIT:          0  dMISS:          0  itACCESS:          0  itHIT:          0  itMISS:          0  dtACCESS:          0  dtHIT:          0  dtMISS:          0
cpu0_ITLB PREFETCH  REQUESTED:          0  ISSUED:          0  CROSSED:          0  USEFUL:     326048  USELESS:      62234
cpu0_ITLB AVERAGE iMISS LATENCY: 2.92645 cycles
cpu0_ITLB AVERAGE dMISS LATENCY: 0 cycles
cpu0_ITLB AVERAGE itMISS LATENCY: 0 cycles
cpu0_ITLB AVERAGE dtMISS LATENCY: 0 cycles
cpu0_ITLB PAGE CROSSINGS (TLB HIT):         0 
cpu0_ITLB PAGE CROSSINGS (TLB MISS):         0 
cpu0_ITLB AVERAGE MISS LATENCY: 2.92645 cycles
cpu0_DTLB TOTAL       ACCESS:   27703799  HIT:   25876592  MISS:    1827207  iACCESS:          0  iHIT:          0  iMISS:          0  dACCESS:   27703799  dHIT:   25876592  dMISS:    1827207  itACCESS:          0  itHIT:          0  itMISS:          0  dtACCESS:          0  dtHIT:          0  dtMISS:          0
cpu0_DTLB LOAD         ACCESS:   27703799  HIT:   25876592  MISS:    1827207  iACCESS:          0  iHIT:          0  iMISS:          0  dACCESS:   27703799  dHIT:   25876592  dMISS:    1827207  itACCESS:          0  itHIT:          0  itMISS:          0  dtACCESS:          0  dtHIT:          0  dtMISS:          0
cpu0_DTLB RFO          ACCESS:          0  HIT:          0  MISS:          0  iACCESS:          0  iHIT:          0  iMISS:          0  dACCESS:          0  dHIT:          0  dMISS:          0  itACCESS:          0  itHIT:          0  itMISS:          0  dtACCESS:          0  dtHIT:          0  dtMISS:          0
cpu0_DTLB PREFETCH     ACCESS:          0  HIT:          0  MISS:          0  iACCESS:          0  iHIT:          0  iMISS:          0  dACCESS:          0  dHIT:          0  dMISS:          0  itACCESS:          0  itHIT:          0  itMISS:          0  dtACCESS:          0  dtHIT:          0  dtMISS:          0
cpu0_DTLB WRITE        ACCESS:          0  HIT:          0  MISS:          0  iACCESS:          0  iHIT:          0  iMISS:          0  dACCESS:          0  dHIT:          0  dMISS:          0  itACCESS:          0  itHIT:          0  itMISS:          0  dtACCESS:          0  dtHIT:          0  dtMISS:          0
cpu0_DTLB TRANSLATION  ACCESS:          0  HIT:          0  MISS:          0  iACCESS:          0  iHIT:          0  iMISS:          0  dACCESS:          0  dHIT:          0  dMISS:          0  itACCESS:          0  itHIT:          0  itMISS:          0  dtACCESS:          0  dtHIT:          0  dtMISS:          0
cpu0_DTLB PREFETCH  REQUESTED:          0  ISSUED:          0  CROSSED:          0  USEFUL:          0  USELESS:          0
cpu0_DTLB AVERAGE iMISS LATENCY: 0 cycles
cpu0_DTLB AVERAGE dMISS LATENCY: 10.4541 cycles
cpu0_DTLB AVERAGE itMISS LATENCY: 0 cycles
cpu0_DTLB AVERAGE dtMISS LATENCY: 0 cycles
cpu0_DTLB PAGE CROSSINGS (TLB HIT):         0 
cpu0_DTLB PAGE CROSSINGS (TLB MISS):         0 
cpu0_DTLB AVERAGE MISS LATENCY: 10.4541 cycles
cpu0_STLB TOTAL       ACCESS:    1511745  HIT:    1349787  MISS:     161958  iACCESS:     388394  iHIT:     331491  iMISS:      56903  dACCESS:    1123351  dHIT:    1018296  dMISS:     105055  itACCESS:          0  itHIT:          0  itMISS:          0  dtACCESS:          0  dtHIT:          0  dtMISS:          0
cpu0_STLB LOAD         ACCESS:    1511745  HIT:    1349787  MISS:     161958  iACCESS:     388394  iHIT:     331491  iMISS:      56903  dACCESS:    1123351  dHIT:    1018296  dMISS:     105055  itACCESS:          0  itHIT:          0  itMISS:          0  dtACCESS:          0  dtHIT:          0  dtMISS:          0
cpu0_STLB RFO          ACCESS:          0  HIT:          0  MISS:          0  iACCESS:          0  iHIT:          0  iMISS:          0  dACCESS:          0  dHIT:          0  dMISS:          0  itACCESS:          0  itHIT:          0  itMISS:          0  dtACCESS:          0  dtHIT:          0  dtMISS:          0
cpu0_STLB PREFETCH     ACCESS:          0  HIT:          0  MISS:          0  iACCESS:          0  iHIT:          0  iMISS:          0  dACCESS:          0  dHIT:          0  dMISS:          0  itACCESS:          0  itHIT:          0  itMISS:          0  dtACCESS:          0  dtHIT:          0  dtMISS:          0
cpu0_STLB WRITE        ACCESS:          0  HIT:          0  MISS:          0  iACCESS:          0  iHIT:          0  iMISS:          0  dACCESS:          0  dHIT:          0  dMISS:          0  itACCESS:          0  itHIT:          0  itMISS:          0  dtACCESS:          0  dtHIT:          0  dtMISS:          0
cpu0_STLB TRANSLATION  ACCESS:          0  HIT:          0  MISS:          0  iACCESS:          0  iHIT:          0  iMISS:          0  dACCESS:          0  dHIT:          0  dMISS:          0  itACCESS:          0  itHIT:          0  itMISS:          0  dtACCESS:          0  dtHIT:          0  dtMISS:          0
cpu0_STLB PREFETCH  REQUESTED:          0  ISSUED:          0  CROSSED:          0  USEFUL:          0  USELESS:          0
cpu0_STLB AVERAGE iMISS LATENCY: 17.0153 cycles
cpu0_STLB AVERAGE dMISS LATENCY: 62.6399 cycles
cpu0_STLB AVERAGE itMISS LATENCY: 0 cycles
cpu0_STLB AVERAGE dtMISS LATENCY: 0 cycles
cpu0_STLB PAGE CROSSINGS (TLB HIT):         0 
cpu0_STLB PAGE CROSSINGS (TLB MISS):         0 
cpu0_STLB AVERAGE MISS LATENCY: 79.6552 cycles
cpu0_L1D TOTAL       ACCESS:   41423917  HIT:   37940698  MISS:    3483219  iACCESS:          0  iHIT:          0  iMISS:          0  dACCESS:   41201395  dHIT:   37921244  dMISS:    3280151  itACCESS:      61708  itHIT:       9059  itMISS:      52649  dtACCESS:     160814  dtHIT:      10395  dtMISS:     150419
cpu0_L1D LOAD         ACCESS:   18950318  HIT:   17447778  MISS:    1502540  iACCESS:          0  iHIT:          0  iMISS:          0  dACCESS:   18950318  dHIT:   17447778  dMISS:    1502540  itACCESS:          0  itHIT:          0  itMISS:          0  dtACCESS:          0  dtHIT:          0  dtMISS:          0
cpu0_L1D RFO          ACCESS:          0  HIT:          0  MISS:          0  iACCESS:          0  iHIT:          0  iMISS:          0  dACCESS:          0  dHIT:          0  dMISS:          0  itACCESS:          0  itHIT:          0  itMISS:          0  dtACCESS:          0  dtHIT:          0  dtMISS:          0
cpu0_L1D PREFETCH     ACCESS:   12120644  HIT:   10762547  MISS:    1358097  iACCESS:          0  iHIT:          0  iMISS:          0  dACCESS:   12120644  dHIT:   10762547  dMISS:    1358097  itACCESS:          0  itHIT:          0  itMISS:          0  dtACCESS:          0  dtHIT:          0  dtMISS:          0
cpu0_L1D WRITE        ACCESS:   10130433  HIT:    9710919  MISS:     419514  iACCESS:          0  iHIT:          0  iMISS:          0  dACCESS:   10130433  dHIT:    9710919  dMISS:     419514  itACCESS:          0  itHIT:          0  itMISS:          0  dtACCESS:          0  dtHIT:          0  dtMISS:          0
cpu0_L1D TRANSLATION  ACCESS:     222522  HIT:      19454  MISS:     203068  iACCESS:          0  iHIT:          0  iMISS:          0  dACCESS:          0  dHIT:          0  dMISS:          0  itACCESS:      61708  itHIT:       9059  itMISS:      52649  dtACCESS:     160814  dtHIT:      10395  dtMISS:     150419
cpu0_L1D PREFETCH  REQUESTED:   18950318  ISSUED:   16920863  CROSSED:          0  USEFUL:     309703  USELESS:     702492
cpu0_L1D AVERAGE iMISS LATENCY: 0 cycles
cpu0_L1D AVERAGE dMISS LATENCY: 32.0003 cycles
cpu0_L1D AVERAGE itMISS LATENCY: 0.648717 cycles
cpu0_L1D AVERAGE dtMISS LATENCY: 2.27471 cycles
cpu0_L1D PAGE CROSSINGS (TLB HIT):         0 
cpu0_L1D PAGE CROSSINGS (TLB MISS):         0 
cpu0_L1D AVERAGE MISS LATENCY: 34.9237 cycles
cpu0_L2C TOTAL       ACCESS:    7004689  HIT:    1683779  MISS:    5320910  iACCESS:    3325405  iHIT:     856308  iMISS:    2469097  dACCESS:    3487911  dHIT:     713707  dMISS:    2774204  itACCESS:      52649  itHIT:      38338  itMISS:      14311  dtACCESS:     138724  dtHIT:      75426  dtMISS:      63298
cpu0_L2C LOAD         ACCESS:    1728414  HIT:     293557  MISS:    1434857  iACCESS:     794479  iHIT:     139406  iMISS:     655073  dACCESS:     933935  dHIT:     154151  dMISS:     779784  itACCESS:          0  itHIT:          0  itMISS:          0  dtACCESS:          0  dtHIT:          0  dtMISS:          0
cpu0_L2C RFO          ACCESS:     155883  HIT:      53250  MISS:     102633  iACCESS:          0  iHIT:          0  iMISS:          0  dACCESS:     155883  dHIT:      53250  dMISS:     102633  itACCESS:          0  itHIT:          0  itMISS:          0  dtACCESS:          0  dtHIT:          0  dtMISS:          0
cpu0_L2C PREFETCH     ACCESS:    4645000  HIT:    1081974  MISS:    3563026  iACCESS:    2530926  iHIT:     716902  iMISS:    1814024  dACCESS:    2114074  dHIT:     365072  dMISS:    1749002  itACCESS:          0  itHIT:          0  itMISS:          0  dtACCESS:          0  dtHIT:          0  dtMISS:          0
cpu0_L2C WRITE        ACCESS:     284019  HIT:     141234  MISS:     142785  iACCESS:          0  iHIT:          0  iMISS:          0  dACCESS:     284019  dHIT:     141234  dMISS:     142785  itACCESS:          0  itHIT:          0  itMISS:          0  dtACCESS:          0  dtHIT:          0  dtMISS:          0
cpu0_L2C TRANSLATION  ACCESS:     191373  HIT:     113764  MISS:      77609  iACCESS:          0  iHIT:          0  iMISS:          0  dACCESS:          0  dHIT:          0  dMISS:          0  itACCESS:      52649  itHIT:      38338  itMISS:      14311  dtACCESS:     138724  dtHIT:      75426  dtMISS:      63298
cpu0_L2C PREFETCH  REQUESTED:    1387381  ISSUED:    1387381  CROSSED:          0  USEFUL:     404097  USELESS:     376433
cpu0_L2C AVERAGE iMISS LATENCY: 14.9819 cycles
cpu0_L2C AVERAGE dMISS LATENCY: 23.7784 cycles
cpu0_L2C AVERAGE itMISS LATENCY: 0.332713 cycles
cpu0_L2C AVERAGE dtMISS LATENCY: 1.24096 cycles
cpu0_L2C PAGE CROSSINGS (TLB HIT):         0 
cpu0_L2C PAGE CROSSINGS (TLB MISS):         0 
cpu0_L2C AVERAGE MISS LATENCY: 40.3339 cycles
LLC TOTAL       ACCESS:    5212015  HIT:    4459953  MISS:     752062  iACCESS:    2417100  iHIT:    2190892  iMISS:     226208  dACCESS:    2717306  dHIT:    2230638  dMISS:     486668  itACCESS:      14311  itHIT:       5604  itMISS:       8707  dtACCESS:      63298  dtHIT:      32819  dtMISS:      30479
LLC LOAD         ACCESS:    1432991  HIT:    1264245  MISS:     168746  iACCESS:     653546  iHIT:     602831  iMISS:      50715  dACCESS:     779445  dHIT:     661414  dMISS:     118031  itACCESS:          0  itHIT:          0  itMISS:          0  dtACCESS:          0  dtHIT:          0  dtMISS:          0
LLC RFO          ACCESS:     102633  HIT:      70223  MISS:      32410  iACCESS:          0  iHIT:          0  iMISS:          0  dACCESS:     102633  dHIT:      70223  dMISS:      32410  itACCESS:          0  itHIT:          0  itMISS:          0  dtACCESS:          0  dtHIT:          0  dtMISS:          0
LLC PREFETCH     ACCESS:    3465491  HIT:    2962101  MISS:     503390  iACCESS:    1763554  iHIT:    1588061  iMISS:     175493  dACCESS:    1701937  dHIT:    1374040  dMISS:     327897  itACCESS:          0  itHIT:          0  itMISS:          0  dtACCESS:          0  dtHIT:          0  dtMISS:          0
LLC WRITE        ACCESS:     133291  HIT:     124961  MISS:       8330  iACCESS:          0  iHIT:          0  iMISS:          0  dACCESS:     133291  dHIT:     124961  dMISS:       8330  itACCESS:          0  itHIT:          0  itMISS:          0  dtACCESS:          0  dtHIT:          0  dtMISS:          0
LLC TRANSLATION  ACCESS:      77609  HIT:      38423  MISS:      39186  iACCESS:          0  iHIT:          0  iMISS:          0  dACCESS:          0  dHIT:          0  dMISS:          0  itACCESS:      14311  itHIT:       5604  itMISS:       8707  dtACCESS:      63298  dtHIT:      32819  dtMISS:      30479
LLC PREFETCH  REQUESTED:          0  ISSUED:          0  CROSSED:          0  USEFUL:          0  USELESS:          0
LLC AVERAGE iMISS LATENCY: 43.9919 cycles
LLC AVERAGE dMISS LATENCY: 102.025 cycles
LLC AVERAGE itMISS LATENCY: 1.98152 cycles
LLC AVERAGE dtMISS LATENCY: 7.14148 cycles
LLC PAGE CROSSINGS (TLB HIT):         0 
LLC PAGE CROSSINGS (TLB MISS):         0 
LLC AVERAGE MISS LATENCY: 155.14 cycles

PageTableWalker TOTAL       ACCESS:      82594  
PageTableWalker AVERAGE LATENCY: 4.43524 cycles
PageTableWalker TOTAL LATENCY: 366324 cycles

DRAM Statistics
Channel 0
 RQ ROW_BUFFER_HIT:     209678
  ROW_BUFFER_MISS:     534020
 AVG DBUS CONGESTED CYCLE:    3.61056
 WQ ROW_BUFFER_HIT:      14328
  ROW_BUFFER_MISS:      20581  FULL:          0

