last_page:0x200000000000000
VMEM_RES_CAP:0x100000
PAGE_SIZE:4096
LOG2_PAGE_SIZE:12
LOG2_PAGE_TABLE_SIZE:9
page_table_levels:5
WARNING: physical memory size is smaller than virtual memory size
FDiP enabled with aggresivity 16

*** ChampSim Multicore Out-of-Order Simulator ***

Warmup Instructions: 50000000
Simulation Instructions: 100000000
Number of CPUs: 1
Small page size: 4096
Large page size: 2097152

CPU 0 Bimodal branch predictor
Basic BTB sets: 1024 ways: 8 indirect buffer size: 4096 RAS size: 64
Instruction page size distrubution: 0
Loading instruction page size distribution from /home/bsc/bsc018186/scratch/itp_asplos25_AE/dump/srv506_ap.pdst
Data page size distrubution: 0
Loading data page size distribution from /home/bsc/bsc018186/scratch/itp_asplos25_AE/dump/srv506_ap.pdst
cpu0_L2C IP-based stride prefetcher
cpu0_L2C is using xPTP/LRU
	TLB_LOWER_STRESS_THRESHOLD:1
	TLB_UPPER_STRESS_THRESHOLD:9
	MIN_EVICTION_POSITION:4
cpu0_L1D next line prefetcher
cpu0_STLB using iTP with max lru@8
cpu0_STLB using iTP with instr@0 and data@2
Init sat counter with 3 bits (max:50).
cpu0_L1I next line prefetcher
Off-chip DRAM Size: 4 GiB Channels: 1 Width: 64-bit Data Rate: 3200 MT/s
Heartbeat CPU 0 instructions: 10000002 cycles: 2500178 heartbeat IPC: 3.99972 cumulative IPC: 3.99972 (Simulation time: 0 hr 0 min 42 sec) 
Heartbeat CPU 0 instructions: 20000003 cycles: 5000235 heartbeat IPC: 3.99991 cumulative IPC: 3.99982 (Simulation time: 0 hr 1 min 23 sec) 
Heartbeat CPU 0 instructions: 30000003 cycles: 7500282 heartbeat IPC: 3.99993 cumulative IPC: 3.99986 (Simulation time: 0 hr 2 min 6 sec) 
Heartbeat CPU 0 instructions: 40000003 cycles: 10000300 heartbeat IPC: 3.99998 cumulative IPC: 3.99989 (Simulation time: 0 hr 2 min 50 sec) 
Heartbeat CPU 0 instructions: 50000002 cycles: 12500315 heartbeat IPC: 3.99998 cumulative IPC: 3.9999 (Simulation time: 0 hr 3 min 34 sec) 
Warmup finished CPU 0 instructions: 50000002 cycles: 12500316 cumulative IPC: 3.9999 (Simulation time: 0 hr 3 min 34 sec) 

Warmup complete CPU 0 instructions: 50000002 cycles: 12500316 (Simulation time: 0 hr 3 min 34 sec) 

Heartbeat CPU 0 instructions: 60000003 cycles: 25773707 heartbeat IPC: 0.753388 cumulative IPC: 0.753388 (Simulation time: 0 hr 4 min 43 sec) 
Heartbeat CPU 0 instructions: 70000001 cycles: 38964439 heartbeat IPC: 0.758108 cumulative IPC: 0.755741 (Simulation time: 0 hr 5 min 47 sec) 
Heartbeat CPU 0 instructions: 80000001 cycles: 53051110 heartbeat IPC: 0.709891 cumulative IPC: 0.739813 (Simulation time: 0 hr 6 min 57 sec) 
Heartbeat CPU 0 instructions: 90000001 cycles: 65991243 heartbeat IPC: 0.77279 cumulative IPC: 0.747791 (Simulation time: 0 hr 8 min 4 sec) 
Heartbeat CPU 0 instructions: 100000003 cycles: 79176214 heartbeat IPC: 0.75844 cumulative IPC: 0.749897 (Simulation time: 0 hr 9 min 13 sec) 
*** Reached end of trace: /gpfs/projects/bsc18/MN4/bsc18/romol/ChampSim/traces/qualcomm_srv/srv506_ap.champsimtrace.xz
Heartbeat CPU 0 instructions: 110000001 cycles: 92542543 heartbeat IPC: 0.748149 cumulative IPC: 0.749605 (Simulation time: 0 hr 10 min 17 sec) 
Heartbeat CPU 0 instructions: 120000003 cycles: 105589330 heartbeat IPC: 0.766473 cumulative IPC: 0.751969 (Simulation time: 0 hr 11 min 25 sec) 
Heartbeat CPU 0 instructions: 130000000 cycles: 118811160 heartbeat IPC: 0.756325 cumulative IPC: 0.752511 (Simulation time: 0 hr 12 min 34 sec) 
Heartbeat CPU 0 instructions: 140000002 cycles: 131291150 heartbeat IPC: 0.801283 cumulative IPC: 0.757635 (Simulation time: 0 hr 13 min 41 sec) 
Heartbeat CPU 0 instructions: 150000000 cycles: 144946307 heartbeat IPC: 0.732324 cumulative IPC: 0.755025 (Simulation time: 0 hr 14 min 46 sec) 
Simulation finished CPU 0 instructions: 100000004 cycles: 132445996 cumulative IPC: 0.755025 (Simulation time: 0 hr 14 min 46 sec) 

Simulation complete CPU 0 instructions: 100000004 cycles: 132445996 (Simulation time: 0 hr 14 min 46 sec) 


ChampSim completed all CPUs

Saving instructions large page distribution to /home/bsc/bsc018186/scratch/itp_asplos25_AE/dump/srv506_ap.pdst...
Saving data large page distribution to /home/bsc/bsc018186/scratch/itp_asplos25_AE/dump/srv506_ap.pdst...
=== Simulation ===
CPU 0 runs /gpfs/projects/bsc18/MN4/bsc18/romol/ChampSim/traces/qualcomm_srv/srv506_ap.champsimtrace.xz

Region of Interest Statistics

CPU 0 cumulative IPC: 0.755025 instructions: 100000004 cycles: 132445996
CPU 0 Branch Prediction Accuracy: 82.859% MPKI: 30.6843 Average ROB Occupancy at Mispredict: 12.1613
Branch type MPKI
BRANCH_DIRECT_JUMP: 1.0352
BRANCH_INDIRECT: 15.6921
BRANCH_CONDITIONAL: 10.1968
BRANCH_DIRECT_CALL: 1.88252
BRANCH_INDIRECT_CALL: 0.53029
BRANCH_RETURN: 1.34747

Instructions large pages: 0
Instructions small pages: 1084
Large page distribution for instructions: 0%

Data large pages: 0
Data small pages: 9900
Large page distribution for data: 0%

cpu0_L1I TOTAL       ACCESS:   35266606  HIT:   27194382  MISS:    8072224  iACCESS:   35266606  iHIT:   27194382  iMISS:    8072224  dACCESS:          0  dHIT:          0  dMISS:          0  itACCESS:          0  itHIT:          0  itMISS:          0  dtACCESS:          0  dtHIT:          0  dtMISS:          0
cpu0_L1I LOAD         ACCESS:   10332766  HIT:    8074237  MISS:    2258529  iACCESS:   10332766  iHIT:    8074237  iMISS:    2258529  dACCESS:          0  dHIT:          0  dMISS:          0  itACCESS:          0  itHIT:          0  itMISS:          0  dtACCESS:          0  dtHIT:          0  dtMISS:          0
cpu0_L1I RFO          ACCESS:          0  HIT:          0  MISS:          0  iACCESS:          0  iHIT:          0  iMISS:          0  dACCESS:          0  dHIT:          0  dMISS:          0  itACCESS:          0  itHIT:          0  itMISS:          0  dtACCESS:          0  dtHIT:          0  dtMISS:          0
cpu0_L1I PREFETCH     ACCESS:   24933840  HIT:   19120145  MISS:    5813695  iACCESS:   24933840  iHIT:   19120145  iMISS:    5813695  dACCESS:          0  dHIT:          0  dMISS:          0  itACCESS:          0  itHIT:          0  itMISS:          0  dtACCESS:          0  dtHIT:          0  dtMISS:          0
cpu0_L1I WRITE        ACCESS:          0  HIT:          0  MISS:          0  iACCESS:          0  iHIT:          0  iMISS:          0  dACCESS:          0  dHIT:          0  dMISS:          0  itACCESS:          0  itHIT:          0  itMISS:          0  dtACCESS:          0  dtHIT:          0  dtMISS:          0
cpu0_L1I TRANSLATION  ACCESS:          0  HIT:          0  MISS:          0  iACCESS:          0  iHIT:          0  iMISS:          0  dACCESS:          0  dHIT:          0  dMISS:          0  itACCESS:          0  itHIT:          0  itMISS:          0  dtACCESS:          0  dtHIT:          0  dtMISS:          0
cpu0_L1I PREFETCH  REQUESTED:   27375533  ISSUED:   27375255  CROSSED:          0  USEFUL:    1943994  USELESS:     630096
cpu0_L1I AVERAGE iMISS LATENCY: 11.2607 cycles
cpu0_L1I AVERAGE dMISS LATENCY: 0 cycles
cpu0_L1I AVERAGE itMISS LATENCY: 0 cycles
cpu0_L1I AVERAGE dtMISS LATENCY: 0 cycles
cpu0_L1I PAGE CROSSINGS (TLB HIT):         0 
cpu0_L1I PAGE CROSSINGS (TLB MISS):         0 
cpu0_L1I AVERAGE MISS LATENCY: 11.2607 cycles
cpu0_ITLB TOTAL       ACCESS:   29348547  HIT:   27425642  MISS:    1922905  iACCESS:   29348547  iHIT:   27425642  iMISS:    1922905  dACCESS:          0  dHIT:          0  dMISS:          0  itACCESS:          0  itHIT:          0  itMISS:          0  dtACCESS:          0  dtHIT:          0  dtMISS:          0
cpu0_ITLB LOAD         ACCESS:   29348547  HIT:   27425642  MISS:    1922905  iACCESS:   29348547  iHIT:   27425642  iMISS:    1922905  dACCESS:          0  dHIT:          0  dMISS:          0  itACCESS:          0  itHIT:          0  itMISS:          0  dtACCESS:          0  dtHIT:          0  dtMISS:          0
cpu0_ITLB RFO          ACCESS:          0  HIT:          0  MISS:          0  iACCESS:          0  iHIT:          0  iMISS:          0  dACCESS:          0  dHIT:          0  dMISS:          0  itACCESS:          0  itHIT:          0  itMISS:          0  dtACCESS:          0  dtHIT:          0  dtMISS:          0
cpu0_ITLB PREFETCH     ACCESS:          0  HIT:          0  MISS:          0  iACCESS:          0  iHIT:          0  iMISS:          0  dACCESS:          0  dHIT:          0  dMISS:          0  itACCESS:          0  itHIT:          0  itMISS:          0  dtACCESS:          0  dtHIT:          0  dtMISS:          0
cpu0_ITLB WRITE        ACCESS:          0  HIT:          0  MISS:          0  iACCESS:          0  iHIT:          0  iMISS:          0  dACCESS:          0  dHIT:          0  dMISS:          0  itACCESS:          0  itHIT:          0  itMISS:          0  dtACCESS:          0  dtHIT:          0  dtMISS:          0
cpu0_ITLB TRANSLATION  ACCESS:          0  HIT:          0  MISS:          0  iACCESS:          0  iHIT:          0  iMISS:          0  dACCESS:          0  dHIT:          0  dMISS:          0  itACCESS:          0  itHIT:          0  itMISS:          0  dtACCESS:          0  dtHIT:          0  dtMISS:          0
cpu0_ITLB PREFETCH  REQUESTED:          0  ISSUED:          0  CROSSED:          0  USEFUL:     317480  USELESS:      63844
cpu0_ITLB AVERAGE iMISS LATENCY: 2.06665 cycles
cpu0_ITLB AVERAGE dMISS LATENCY: 0 cycles
cpu0_ITLB AVERAGE itMISS LATENCY: 0 cycles
cpu0_ITLB AVERAGE dtMISS LATENCY: 0 cycles
cpu0_ITLB PAGE CROSSINGS (TLB HIT):         0 
cpu0_ITLB PAGE CROSSINGS (TLB MISS):         0 
cpu0_ITLB AVERAGE MISS LATENCY: 2.06665 cycles
cpu0_DTLB TOTAL       ACCESS:   27758530  HIT:   25719874  MISS:    2038656  iACCESS:          0  iHIT:          0  iMISS:          0  dACCESS:   27758530  dHIT:   25719874  dMISS:    2038656  itACCESS:          0  itHIT:          0  itMISS:          0  dtACCESS:          0  dtHIT:          0  dtMISS:          0
cpu0_DTLB LOAD         ACCESS:   27758530  HIT:   25719874  MISS:    2038656  iACCESS:          0  iHIT:          0  iMISS:          0  dACCESS:   27758530  dHIT:   25719874  dMISS:    2038656  itACCESS:          0  itHIT:          0  itMISS:          0  dtACCESS:          0  dtHIT:          0  dtMISS:          0
cpu0_DTLB RFO          ACCESS:          0  HIT:          0  MISS:          0  iACCESS:          0  iHIT:          0  iMISS:          0  dACCESS:          0  dHIT:          0  dMISS:          0  itACCESS:          0  itHIT:          0  itMISS:          0  dtACCESS:          0  dtHIT:          0  dtMISS:          0
cpu0_DTLB PREFETCH     ACCESS:          0  HIT:          0  MISS:          0  iACCESS:          0  iHIT:          0  iMISS:          0  dACCESS:          0  dHIT:          0  dMISS:          0  itACCESS:          0  itHIT:          0  itMISS:          0  dtACCESS:          0  dtHIT:          0  dtMISS:          0
cpu0_DTLB WRITE        ACCESS:          0  HIT:          0  MISS:          0  iACCESS:          0  iHIT:          0  iMISS:          0  dACCESS:          0  dHIT:          0  dMISS:          0  itACCESS:          0  itHIT:          0  itMISS:          0  dtACCESS:          0  dtHIT:          0  dtMISS:          0
cpu0_DTLB TRANSLATION  ACCESS:          0  HIT:          0  MISS:          0  iACCESS:          0  iHIT:          0  iMISS:          0  dACCESS:          0  dHIT:          0  dMISS:          0  itACCESS:          0  itHIT:          0  itMISS:          0  dtACCESS:          0  dtHIT:          0  dtMISS:          0
cpu0_DTLB PREFETCH  REQUESTED:          0  ISSUED:          0  CROSSED:          0  USEFUL:          0  USELESS:          0
cpu0_DTLB AVERAGE iMISS LATENCY: 0 cycles
cpu0_DTLB AVERAGE dMISS LATENCY: 11.0027 cycles
cpu0_DTLB AVERAGE itMISS LATENCY: 0 cycles
cpu0_DTLB AVERAGE dtMISS LATENCY: 0 cycles
cpu0_DTLB PAGE CROSSINGS (TLB HIT):         0 
cpu0_DTLB PAGE CROSSINGS (TLB MISS):         0 
cpu0_DTLB AVERAGE MISS LATENCY: 11.0027 cycles
cpu0_STLB TOTAL       ACCESS:    1629043  HIT:    1481494  MISS:     147549  iACCESS:     381337  iHIT:     371633  iMISS:       9704  dACCESS:    1247706  dHIT:    1109861  dMISS:     137845  itACCESS:          0  itHIT:          0  itMISS:          0  dtACCESS:          0  dtHIT:          0  dtMISS:          0
cpu0_STLB LOAD         ACCESS:    1629043  HIT:    1481494  MISS:     147549  iACCESS:     381337  iHIT:     371633  iMISS:       9704  dACCESS:    1247706  dHIT:    1109861  dMISS:     137845  itACCESS:          0  itHIT:          0  itMISS:          0  dtACCESS:          0  dtHIT:          0  dtMISS:          0
cpu0_STLB RFO          ACCESS:          0  HIT:          0  MISS:          0  iACCESS:          0  iHIT:          0  iMISS:          0  dACCESS:          0  dHIT:          0  dMISS:          0  itACCESS:          0  itHIT:          0  itMISS:          0  dtACCESS:          0  dtHIT:          0  dtMISS:          0
cpu0_STLB PREFETCH     ACCESS:          0  HIT:          0  MISS:          0  iACCESS:          0  iHIT:          0  iMISS:          0  dACCESS:          0  dHIT:          0  dMISS:          0  itACCESS:          0  itHIT:          0  itMISS:          0  dtACCESS:          0  dtHIT:          0  dtMISS:          0
cpu0_STLB WRITE        ACCESS:          0  HIT:          0  MISS:          0  iACCESS:          0  iHIT:          0  iMISS:          0  dACCESS:          0  dHIT:          0  dMISS:          0  itACCESS:          0  itHIT:          0  itMISS:          0  dtACCESS:          0  dtHIT:          0  dtMISS:          0
cpu0_STLB TRANSLATION  ACCESS:          0  HIT:          0  MISS:          0  iACCESS:          0  iHIT:          0  iMISS:          0  dACCESS:          0  dHIT:          0  dMISS:          0  itACCESS:          0  itHIT:          0  itMISS:          0  dtACCESS:          0  dtHIT:          0  dtMISS:          0
cpu0_STLB PREFETCH  REQUESTED:          0  ISSUED:          0  CROSSED:          0  USEFUL:          0  USELESS:          0
cpu0_STLB AVERAGE iMISS LATENCY: 6.88025 cycles
cpu0_STLB AVERAGE dMISS LATENCY: 84.5129 cycles
cpu0_STLB AVERAGE itMISS LATENCY: 0 cycles
cpu0_STLB AVERAGE dtMISS LATENCY: 0 cycles
cpu0_STLB PAGE CROSSINGS (TLB HIT):         0 
cpu0_STLB PAGE CROSSINGS (TLB MISS):         0 
cpu0_STLB AVERAGE MISS LATENCY: 91.3931 cycles
cpu0_L1D TOTAL       ACCESS:   41580473  HIT:   38048162  MISS:    3532311  iACCESS:          0  iHIT:          0  iMISS:          0  dACCESS:   41362678  dHIT:   38034713  dMISS:    3327965  itACCESS:      11390  itHIT:       1210  itMISS:      10180  dtACCESS:     206405  dtHIT:      12239  dtMISS:     194166
cpu0_L1D LOAD         ACCESS:   18972684  HIT:   17453848  MISS:    1518836  iACCESS:          0  iHIT:          0  iMISS:          0  dACCESS:   18972684  dHIT:   17453848  dMISS:    1518836  itACCESS:          0  itHIT:          0  itMISS:          0  dtACCESS:          0  dtHIT:          0  dtMISS:          0
cpu0_L1D RFO          ACCESS:          0  HIT:          0  MISS:          0  iACCESS:          0  iHIT:          0  iMISS:          0  dACCESS:          0  dHIT:          0  dMISS:          0  itACCESS:          0  itHIT:          0  itMISS:          0  dtACCESS:          0  dtHIT:          0  dtMISS:          0
cpu0_L1D PREFETCH     ACCESS:   12194565  HIT:   10821446  MISS:    1373119  iACCESS:          0  iHIT:          0  iMISS:          0  dACCESS:   12194565  dHIT:   10821446  dMISS:    1373119  itACCESS:          0  itHIT:          0  itMISS:          0  dtACCESS:          0  dtHIT:          0  dtMISS:          0
cpu0_L1D WRITE        ACCESS:   10195429  HIT:    9759419  MISS:     436010  iACCESS:          0  iHIT:          0  iMISS:          0  dACCESS:   10195429  dHIT:    9759419  dMISS:     436010  itACCESS:          0  itHIT:          0  itMISS:          0  dtACCESS:          0  dtHIT:          0  dtMISS:          0
cpu0_L1D TRANSLATION  ACCESS:     217795  HIT:      13449  MISS:     204346  iACCESS:          0  iHIT:          0  iMISS:          0  dACCESS:          0  dHIT:          0  dMISS:          0  itACCESS:      11390  itHIT:       1210  itMISS:      10180  dtACCESS:     206405  dtHIT:      12239  dtMISS:     194166
cpu0_L1D PREFETCH  REQUESTED:   18972684  ISSUED:   16998001  CROSSED:          0  USEFUL:     306875  USELESS:     699591
cpu0_L1D AVERAGE iMISS LATENCY: 0 cycles
cpu0_L1D AVERAGE dMISS LATENCY: 29.4435 cycles
cpu0_L1D AVERAGE itMISS LATENCY: 0.253563 cycles
cpu0_L1D AVERAGE dtMISS LATENCY: 2.78639 cycles
cpu0_L1D PAGE CROSSINGS (TLB HIT):         0 
cpu0_L1D PAGE CROSSINGS (TLB MISS):         0 
cpu0_L1D AVERAGE MISS LATENCY: 32.4834 cycles
cpu0_L2C TOTAL       ACCESS:    7006247  HIT:    2645673  MISS:    4360574  iACCESS:    3313975  iHIT:    1486312  iMISS:    1827663  dACCESS:    3498526  dHIT:    1025828  dMISS:    2472698  itACCESS:      10180  itHIT:       3908  itMISS:       6272  dtACCESS:     183566  dtHIT:     129625  dtMISS:      53941
cpu0_L2C LOAD         ACCESS:    1707568  HIT:     577659  MISS:    1129909  iACCESS:     778322  iHIT:     326346  iMISS:     451976  dACCESS:     929246  dHIT:     251313  dMISS:     677933  itACCESS:          0  itHIT:          0  itMISS:          0  dtACCESS:          0  dtHIT:          0  dtMISS:          0
cpu0_L2C RFO          ACCESS:     158561  HIT:      33984  MISS:     124577  iACCESS:          0  iHIT:          0  iMISS:          0  dACCESS:     158561  dHIT:      33984  dMISS:     124577  itACCESS:          0  itHIT:          0  itMISS:          0  dtACCESS:          0  dtHIT:          0  dtMISS:          0
cpu0_L2C PREFETCH     ACCESS:    4665181  HIT:    1775878  MISS:    2889303  iACCESS:    2535653  iHIT:    1159966  iMISS:    1375687  dACCESS:    2129528  dHIT:     615912  dMISS:    1513616  itACCESS:          0  itHIT:          0  itMISS:          0  dtACCESS:          0  dtHIT:          0  dtMISS:          0
cpu0_L2C WRITE        ACCESS:     281191  HIT:     124619  MISS:     156572  iACCESS:          0  iHIT:          0  iMISS:          0  dACCESS:     281191  dHIT:     124619  dMISS:     156572  itACCESS:          0  itHIT:          0  itMISS:          0  dtACCESS:          0  dtHIT:          0  dtMISS:          0
cpu0_L2C TRANSLATION  ACCESS:     193746  HIT:     133533  MISS:      60213  iACCESS:          0  iHIT:          0  iMISS:          0  dACCESS:          0  dHIT:          0  dMISS:          0  itACCESS:      10180  itHIT:       3908  itMISS:       6272  dtACCESS:     183566  dtHIT:     129625  dtMISS:      53941
cpu0_L2C PREFETCH  REQUESTED:    1381250  ISSUED:    1381250  CROSSED:          0  USEFUL:     369464  USELESS:     324688
cpu0_L2C AVERAGE iMISS LATENCY: 13.8524 cycles
cpu0_L2C AVERAGE dMISS LATENCY: 26.428 cycles
cpu0_L2C AVERAGE itMISS LATENCY: 0.182895 cycles
cpu0_L2C AVERAGE dtMISS LATENCY: 1.86356 cycles
cpu0_L2C PAGE CROSSINGS (TLB HIT):         0 
cpu0_L2C PAGE CROSSINGS (TLB MISS):         0 
cpu0_L2C AVERAGE MISS LATENCY: 42.3268 cycles
LLC TOTAL       ACCESS:    4317371  HIT:    3667198  MISS:     650173  iACCESS:    1783780  iHIT:    1612682  iMISS:     171098  dACCESS:    2473378  dHIT:    2038299  dMISS:     435079  itACCESS:       6272  itHIT:       2397  itMISS:       3875  dtACCESS:      53941  dtHIT:      13820  dtMISS:      40121
LLC LOAD         ACCESS:    1127589  HIT:     981565  MISS:     146024  iACCESS:     450807  iHIT:     413638  iMISS:      37169  dACCESS:     676782  dHIT:     567927  dMISS:     108855  itACCESS:          0  itHIT:          0  itMISS:          0  dtACCESS:          0  dtHIT:          0  dtMISS:          0
LLC RFO          ACCESS:     124570  HIT:      91024  MISS:      33546  iACCESS:          0  iHIT:          0  iMISS:          0  dACCESS:     124570  dHIT:      91024  dMISS:      33546  itACCESS:          0  itHIT:          0  itMISS:          0  dtACCESS:          0  dtHIT:          0  dtMISS:          0
LLC PREFETCH     ACCESS:    2803454  HIT:    2378809  MISS:     424645  iACCESS:    1332973  iHIT:    1199044  iMISS:     133929  dACCESS:    1470481  dHIT:    1179765  dMISS:     290716  itACCESS:          0  itHIT:          0  itMISS:          0  dtACCESS:          0  dtHIT:          0  dtMISS:          0
LLC WRITE        ACCESS:     201545  HIT:     199583  MISS:       1962  iACCESS:          0  iHIT:          0  iMISS:          0  dACCESS:     201545  dHIT:     199583  dMISS:       1962  itACCESS:          0  itHIT:          0  itMISS:          0  dtACCESS:          0  dtHIT:          0  dtMISS:          0
LLC TRANSLATION  ACCESS:      60213  HIT:      16217  MISS:      43996  iACCESS:          0  iHIT:          0  iMISS:          0  dACCESS:          0  dHIT:          0  dMISS:          0  itACCESS:       6272  itHIT:       2397  itMISS:       3875  dtACCESS:      53941  dtHIT:      13820  dtMISS:      40121
LLC PREFETCH  REQUESTED:          0  ISSUED:          0  CROSSED:          0  USEFUL:          0  USELESS:          0
LLC AVERAGE iMISS LATENCY: 40.052 cycles
LLC AVERAGE dMISS LATENCY: 109.934 cycles
LLC AVERAGE itMISS LATENCY: 1.03783 cycles
LLC AVERAGE dtMISS LATENCY: 10.865 cycles
LLC PAGE CROSSINGS (TLB HIT):         0 
LLC PAGE CROSSINGS (TLB MISS):         0 
LLC AVERAGE MISS LATENCY: 161.888 cycles

PageTableWalker TOTAL       ACCESS:      73323  
PageTableWalker AVERAGE LATENCY: 4.81341 cycles
PageTableWalker TOTAL LATENCY: 352933 cycles

DRAM Statistics
Channel 0
 RQ ROW_BUFFER_HIT:     165976
  ROW_BUFFER_MISS:     481553
 AVG DBUS CONGESTED CYCLE:    3.65647
 WQ ROW_BUFFER_HIT:      15090
  ROW_BUFFER_MISS:      26274  FULL:          0

