last_page:0x200000000000000
VMEM_RES_CAP:0x100000
PAGE_SIZE:4096
LOG2_PAGE_SIZE:12
LOG2_PAGE_TABLE_SIZE:9
page_table_levels:5
WARNING: physical memory size is smaller than virtual memory size
FDiP enabled with aggresivity 16

*** ChampSim Multicore Out-of-Order Simulator ***

Warmup Instructions: 50000000
Simulation Instructions: 100000000
Number of CPUs: 1
Small page size: 4096
Large page size: 2097152

CPU 0 Bimodal branch predictor
Basic BTB sets: 1024 ways: 8 indirect buffer size: 4096 RAS size: 64
Instruction page size distrubution: 0
Loading instruction page size distribution from /home/bsc/bsc018186/scratch/itp_asplos25_AE/dump/srv506_ap.pdst
Data page size distrubution: 0
Loading data page size distribution from /home/bsc/bsc018186/scratch/itp_asplos25_AE/dump/srv506_ap.pdst
cpu0_L2C IP-based stride prefetcher
cpu0_L2C is using PTP replacement policy:
	TLB_STRESS_THRESHOLD:0
	PTE_EVICTION_RATIO:0
cpu0_L1D next line prefetcher
CHiRPing...
cpu0_L1I next line prefetcher
Off-chip DRAM Size: 4 GiB Channels: 1 Width: 64-bit Data Rate: 3200 MT/s
Heartbeat CPU 0 instructions: 10000002 cycles: 2500140 heartbeat IPC: 3.99978 cumulative IPC: 3.99978 (Simulation time: 0 hr 0 min 37 sec) 
Heartbeat CPU 0 instructions: 20000003 cycles: 5000206 heartbeat IPC: 3.9999 cumulative IPC: 3.99984 (Simulation time: 0 hr 1 min 18 sec) 
Heartbeat CPU 0 instructions: 30000000 cycles: 7500239 heartbeat IPC: 3.99995 cumulative IPC: 3.99988 (Simulation time: 0 hr 1 min 58 sec) 
Heartbeat CPU 0 instructions: 40000003 cycles: 10000281 heartbeat IPC: 3.99994 cumulative IPC: 3.99989 (Simulation time: 0 hr 2 min 39 sec) 
Heartbeat CPU 0 instructions: 50000003 cycles: 12500283 heartbeat IPC: 4 cumulative IPC: 3.99991 (Simulation time: 0 hr 3 min 19 sec) 
Warmup finished CPU 0 instructions: 50000003 cycles: 12500284 cumulative IPC: 3.99991 (Simulation time: 0 hr 3 min 19 sec) 

Warmup complete CPU 0 instructions: 50000003 cycles: 12500284 (Simulation time: 0 hr 3 min 19 sec) 

Heartbeat CPU 0 instructions: 60000003 cycles: 27284950 heartbeat IPC: 0.676377 cumulative IPC: 0.676377 (Simulation time: 0 hr 4 min 24 sec) 
Heartbeat CPU 0 instructions: 70000001 cycles: 42014819 heartbeat IPC: 0.678893 cumulative IPC: 0.677633 (Simulation time: 0 hr 5 min 28 sec) 
Heartbeat CPU 0 instructions: 80000001 cycles: 57630390 heartbeat IPC: 0.640387 cumulative IPC: 0.664745 (Simulation time: 0 hr 6 min 34 sec) 
Heartbeat CPU 0 instructions: 90000001 cycles: 72113713 heartbeat IPC: 0.69045 cumulative IPC: 0.67099 (Simulation time: 0 hr 7 min 40 sec) 
Heartbeat CPU 0 instructions: 100000003 cycles: 86764201 heartbeat IPC: 0.682572 cumulative IPC: 0.673275 (Simulation time: 0 hr 8 min 46 sec) 
*** Reached end of trace: /gpfs/projects/bsc18/MN4/bsc18/romol/ChampSim/traces/qualcomm_srv/srv506_ap.champsimtrace.xz
Heartbeat CPU 0 instructions: 110000001 cycles: 101277695 heartbeat IPC: 0.689014 cumulative IPC: 0.675848 (Simulation time: 0 hr 9 min 52 sec) 
Heartbeat CPU 0 instructions: 120000003 cycles: 115633230 heartbeat IPC: 0.696596 cumulative IPC: 0.678736 (Simulation time: 0 hr 10 min 58 sec) 
Heartbeat CPU 0 instructions: 130000000 cycles: 129920833 heartbeat IPC: 0.699908 cumulative IPC: 0.681312 (Simulation time: 0 hr 12 min 4 sec) 
Heartbeat CPU 0 instructions: 140000002 cycles: 143831730 heartbeat IPC: 0.718862 cumulative IPC: 0.68529 (Simulation time: 0 hr 13 min 9 sec) 
Heartbeat CPU 0 instructions: 150000000 cycles: 158851077 heartbeat IPC: 0.665808 cumulative IPC: 0.68329 (Simulation time: 0 hr 14 min 16 sec) 
Simulation finished CPU 0 instructions: 100000003 cycles: 146350798 cumulative IPC: 0.68329 (Simulation time: 0 hr 14 min 16 sec) 

Simulation complete CPU 0 instructions: 100000003 cycles: 146350798 (Simulation time: 0 hr 14 min 16 sec) 


ChampSim completed all CPUs

Saving instructions large page distribution to /home/bsc/bsc018186/scratch/itp_asplos25_AE/dump/srv506_ap.pdst...
Saving data large page distribution to /home/bsc/bsc018186/scratch/itp_asplos25_AE/dump/srv506_ap.pdst...
=== Simulation ===
CPU 0 runs /gpfs/projects/bsc18/MN4/bsc18/romol/ChampSim/traces/qualcomm_srv/srv506_ap.champsimtrace.xz

Region of Interest Statistics

CPU 0 cumulative IPC: 0.68329 instructions: 100000003 cycles: 146350798
CPU 0 Branch Prediction Accuracy: 82.859% MPKI: 30.6843 Average ROB Occupancy at Mispredict: 12.033
Branch type MPKI
BRANCH_DIRECT_JUMP: 1.0352
BRANCH_INDIRECT: 15.6921
BRANCH_CONDITIONAL: 10.1968
BRANCH_DIRECT_CALL: 1.88252
BRANCH_INDIRECT_CALL: 0.53029
BRANCH_RETURN: 1.34747

Instructions large pages: 0
Instructions small pages: 1084
Large page distribution for instructions: 0%

Data large pages: 0
Data small pages: 9900
Large page distribution for data: 0%

cpu0_L1I TOTAL       ACCESS:   35633550  HIT:   27094149  MISS:    8539401  iACCESS:   35633550  iHIT:   27094149  iMISS:    8539401  dACCESS:          0  dHIT:          0  dMISS:          0  itACCESS:          0  itHIT:          0  itMISS:          0  dtACCESS:          0  dtHIT:          0  dtMISS:          0
cpu0_L1I LOAD         ACCESS:   10425268  HIT:    8038607  MISS:    2386661  iACCESS:   10425268  iHIT:    8038607  iMISS:    2386661  dACCESS:          0  dHIT:          0  dMISS:          0  itACCESS:          0  itHIT:          0  itMISS:          0  dtACCESS:          0  dtHIT:          0  dtMISS:          0
cpu0_L1I RFO          ACCESS:          0  HIT:          0  MISS:          0  iACCESS:          0  iHIT:          0  iMISS:          0  dACCESS:          0  dHIT:          0  dMISS:          0  itACCESS:          0  itHIT:          0  itMISS:          0  dtACCESS:          0  dtHIT:          0  dtMISS:          0
cpu0_L1I PREFETCH     ACCESS:   25208282  HIT:   19055542  MISS:    6152740  iACCESS:   25208282  iHIT:   19055542  iMISS:    6152740  dACCESS:          0  dHIT:          0  dMISS:          0  itACCESS:          0  itHIT:          0  itMISS:          0  dtACCESS:          0  dtHIT:          0  dtMISS:          0
cpu0_L1I WRITE        ACCESS:          0  HIT:          0  MISS:          0  iACCESS:          0  iHIT:          0  iMISS:          0  dACCESS:          0  dHIT:          0  dMISS:          0  itACCESS:          0  itHIT:          0  itMISS:          0  dtACCESS:          0  dtHIT:          0  dtMISS:          0
cpu0_L1I TRANSLATION  ACCESS:          0  HIT:          0  MISS:          0  iACCESS:          0  iHIT:          0  iMISS:          0  dACCESS:          0  dHIT:          0  dMISS:          0  itACCESS:          0  itHIT:          0  itMISS:          0  dtACCESS:          0  dtHIT:          0  dtMISS:          0
cpu0_L1I PREFETCH  REQUESTED:   27465337  ISSUED:   27461918  CROSSED:          0  USEFUL:    1941191  USELESS:     630000
cpu0_L1I AVERAGE iMISS LATENCY: 14.1973 cycles
cpu0_L1I AVERAGE dMISS LATENCY: 0 cycles
cpu0_L1I AVERAGE itMISS LATENCY: 0 cycles
cpu0_L1I AVERAGE dtMISS LATENCY: 0 cycles
cpu0_L1I PAGE CROSSINGS (TLB HIT):         0 
cpu0_L1I PAGE CROSSINGS (TLB MISS):         0 
cpu0_L1I AVERAGE MISS LATENCY: 14.1973 cycles
cpu0_ITLB TOTAL       ACCESS:   29422271  HIT:   27483336  MISS:    1938935  iACCESS:   29422271  iHIT:   27483336  iMISS:    1938935  dACCESS:          0  dHIT:          0  dMISS:          0  itACCESS:          0  itHIT:          0  itMISS:          0  dtACCESS:          0  dtHIT:          0  dtMISS:          0
cpu0_ITLB LOAD         ACCESS:   29422271  HIT:   27483336  MISS:    1938935  iACCESS:   29422271  iHIT:   27483336  iMISS:    1938935  dACCESS:          0  dHIT:          0  dMISS:          0  itACCESS:          0  itHIT:          0  itMISS:          0  dtACCESS:          0  dtHIT:          0  dtMISS:          0
cpu0_ITLB RFO          ACCESS:          0  HIT:          0  MISS:          0  iACCESS:          0  iHIT:          0  iMISS:          0  dACCESS:          0  dHIT:          0  dMISS:          0  itACCESS:          0  itHIT:          0  itMISS:          0  dtACCESS:          0  dtHIT:          0  dtMISS:          0
cpu0_ITLB PREFETCH     ACCESS:          0  HIT:          0  MISS:          0  iACCESS:          0  iHIT:          0  iMISS:          0  dACCESS:          0  dHIT:          0  dMISS:          0  itACCESS:          0  itHIT:          0  itMISS:          0  dtACCESS:          0  dtHIT:          0  dtMISS:          0
cpu0_ITLB WRITE        ACCESS:          0  HIT:          0  MISS:          0  iACCESS:          0  iHIT:          0  iMISS:          0  dACCESS:          0  dHIT:          0  dMISS:          0  itACCESS:          0  itHIT:          0  itMISS:          0  dtACCESS:          0  dtHIT:          0  dtMISS:          0
cpu0_ITLB TRANSLATION  ACCESS:          0  HIT:          0  MISS:          0  iACCESS:          0  iHIT:          0  iMISS:          0  dACCESS:          0  dHIT:          0  dMISS:          0  itACCESS:          0  itHIT:          0  itMISS:          0  dtACCESS:          0  dtHIT:          0  dtMISS:          0
cpu0_ITLB PREFETCH  REQUESTED:          0  ISSUED:          0  CROSSED:          0  USEFUL:     316691  USELESS:      64627
cpu0_ITLB AVERAGE iMISS LATENCY: 3.1033 cycles
cpu0_ITLB AVERAGE dMISS LATENCY: 0 cycles
cpu0_ITLB AVERAGE itMISS LATENCY: 0 cycles
cpu0_ITLB AVERAGE dtMISS LATENCY: 0 cycles
cpu0_ITLB PAGE CROSSINGS (TLB HIT):         0 
cpu0_ITLB PAGE CROSSINGS (TLB MISS):         0 
cpu0_ITLB AVERAGE MISS LATENCY: 3.1033 cycles
cpu0_DTLB TOTAL       ACCESS:   27763677  HIT:   25735127  MISS:    2028550  iACCESS:          0  iHIT:          0  iMISS:          0  dACCESS:   27763677  dHIT:   25735127  dMISS:    2028550  itACCESS:          0  itHIT:          0  itMISS:          0  dtACCESS:          0  dtHIT:          0  dtMISS:          0
cpu0_DTLB LOAD         ACCESS:   27763677  HIT:   25735127  MISS:    2028550  iACCESS:          0  iHIT:          0  iMISS:          0  dACCESS:   27763677  dHIT:   25735127  dMISS:    2028550  itACCESS:          0  itHIT:          0  itMISS:          0  dtACCESS:          0  dtHIT:          0  dtMISS:          0
cpu0_DTLB RFO          ACCESS:          0  HIT:          0  MISS:          0  iACCESS:          0  iHIT:          0  iMISS:          0  dACCESS:          0  dHIT:          0  dMISS:          0  itACCESS:          0  itHIT:          0  itMISS:          0  dtACCESS:          0  dtHIT:          0  dtMISS:          0
cpu0_DTLB PREFETCH     ACCESS:          0  HIT:          0  MISS:          0  iACCESS:          0  iHIT:          0  iMISS:          0  dACCESS:          0  dHIT:          0  dMISS:          0  itACCESS:          0  itHIT:          0  itMISS:          0  dtACCESS:          0  dtHIT:          0  dtMISS:          0
cpu0_DTLB WRITE        ACCESS:          0  HIT:          0  MISS:          0  iACCESS:          0  iHIT:          0  iMISS:          0  dACCESS:          0  dHIT:          0  dMISS:          0  itACCESS:          0  itHIT:          0  itMISS:          0  dtACCESS:          0  dtHIT:          0  dtMISS:          0
cpu0_DTLB TRANSLATION  ACCESS:          0  HIT:          0  MISS:          0  iACCESS:          0  iHIT:          0  iMISS:          0  dACCESS:          0  dHIT:          0  dMISS:          0  itACCESS:          0  itHIT:          0  itMISS:          0  dtACCESS:          0  dtHIT:          0  dtMISS:          0
cpu0_DTLB PREFETCH  REQUESTED:          0  ISSUED:          0  CROSSED:          0  USEFUL:          0  USELESS:          0
cpu0_DTLB AVERAGE iMISS LATENCY: 0 cycles
cpu0_DTLB AVERAGE dMISS LATENCY: 9.47907 cycles
cpu0_DTLB AVERAGE itMISS LATENCY: 0 cycles
cpu0_DTLB AVERAGE dtMISS LATENCY: 0 cycles
cpu0_DTLB PAGE CROSSINGS (TLB HIT):         0 
cpu0_DTLB PAGE CROSSINGS (TLB MISS):         0 
cpu0_DTLB AVERAGE MISS LATENCY: 9.47907 cycles
cpu0_STLB TOTAL       ACCESS:    1629391  HIT:    1459851  MISS:     169540  iACCESS:     381356  iHIT:     322302  iMISS:      59054  dACCESS:    1248035  dHIT:    1137549  dMISS:     110486  itACCESS:          0  itHIT:          0  itMISS:          0  dtACCESS:          0  dtHIT:          0  dtMISS:          0
cpu0_STLB LOAD         ACCESS:    1629391  HIT:    1459851  MISS:     169540  iACCESS:     381356  iHIT:     322302  iMISS:      59054  dACCESS:    1248035  dHIT:    1137549  dMISS:     110486  itACCESS:          0  itHIT:          0  itMISS:          0  dtACCESS:          0  dtHIT:          0  dtMISS:          0
cpu0_STLB RFO          ACCESS:          0  HIT:          0  MISS:          0  iACCESS:          0  iHIT:          0  iMISS:          0  dACCESS:          0  dHIT:          0  dMISS:          0  itACCESS:          0  itHIT:          0  itMISS:          0  dtACCESS:          0  dtHIT:          0  dtMISS:          0
cpu0_STLB PREFETCH     ACCESS:          0  HIT:          0  MISS:          0  iACCESS:          0  iHIT:          0  iMISS:          0  dACCESS:          0  dHIT:          0  dMISS:          0  itACCESS:          0  itHIT:          0  itMISS:          0  dtACCESS:          0  dtHIT:          0  dtMISS:          0
cpu0_STLB WRITE        ACCESS:          0  HIT:          0  MISS:          0  iACCESS:          0  iHIT:          0  iMISS:          0  dACCESS:          0  dHIT:          0  dMISS:          0  itACCESS:          0  itHIT:          0  itMISS:          0  dtACCESS:          0  dtHIT:          0  dtMISS:          0
cpu0_STLB TRANSLATION  ACCESS:          0  HIT:          0  MISS:          0  iACCESS:          0  iHIT:          0  iMISS:          0  dACCESS:          0  dHIT:          0  dMISS:          0  itACCESS:          0  itHIT:          0  itMISS:          0  dtACCESS:          0  dtHIT:          0  dtMISS:          0
cpu0_STLB PREFETCH  REQUESTED:          0  ISSUED:          0  CROSSED:          0  USEFUL:          0  USELESS:          0
cpu0_STLB AVERAGE iMISS LATENCY: 17.7292 cycles
cpu0_STLB AVERAGE dMISS LATENCY: 54.8127 cycles
cpu0_STLB AVERAGE itMISS LATENCY: 0 cycles
cpu0_STLB AVERAGE dtMISS LATENCY: 0 cycles
cpu0_STLB PAGE CROSSINGS (TLB HIT):         0 
cpu0_STLB PAGE CROSSINGS (TLB MISS):         0 
cpu0_STLB AVERAGE MISS LATENCY: 72.5418 cycles
cpu0_L1D TOTAL       ACCESS:   41656644  HIT:   38037071  MISS:    3619573  iACCESS:          0  iHIT:          0  iMISS:          0  dACCESS:   41423423  dHIT:   38016832  dMISS:    3406591  itACCESS:      64176  itHIT:       9411  itMISS:      54765  dtACCESS:     169045  dtHIT:      10828  dtMISS:     158217
cpu0_L1D LOAD         ACCESS:   18990382  HIT:   17447935  MISS:    1542447  iACCESS:          0  iHIT:          0  iMISS:          0  dACCESS:   18990382  dHIT:   17447935  dMISS:    1542447  itACCESS:          0  itHIT:          0  itMISS:          0  dtACCESS:          0  dtHIT:          0  dtMISS:          0
cpu0_L1D RFO          ACCESS:          0  HIT:          0  MISS:          0  iACCESS:          0  iHIT:          0  iMISS:          0  dACCESS:          0  dHIT:          0  dMISS:          0  itACCESS:          0  itHIT:          0  itMISS:          0  dtACCESS:          0  dtHIT:          0  dtMISS:          0
cpu0_L1D PREFETCH     ACCESS:   12231140  HIT:   10814390  MISS:    1416750  iACCESS:          0  iHIT:          0  iMISS:          0  dACCESS:   12231140  dHIT:   10814390  dMISS:    1416750  itACCESS:          0  itHIT:          0  itMISS:          0  dtACCESS:          0  dtHIT:          0  dtMISS:          0
cpu0_L1D WRITE        ACCESS:   10201901  HIT:    9754507  MISS:     447394  iACCESS:          0  iHIT:          0  iMISS:          0  dACCESS:   10201901  dHIT:    9754507  dMISS:     447394  itACCESS:          0  itHIT:          0  itMISS:          0  dtACCESS:          0  dtHIT:          0  dtMISS:          0
cpu0_L1D TRANSLATION  ACCESS:     233221  HIT:      20239  MISS:     212982  iACCESS:          0  iHIT:          0  iMISS:          0  dACCESS:          0  dHIT:          0  dMISS:          0  itACCESS:      64176  itHIT:       9411  itMISS:      54765  dtACCESS:     169045  dtHIT:      10828  dtMISS:     158217
cpu0_L1D PREFETCH  REQUESTED:   18990382  ISSUED:   17008573  CROSSED:          0  USEFUL:     306566  USELESS:     701730
cpu0_L1D AVERAGE iMISS LATENCY: 0 cycles
cpu0_L1D AVERAGE dMISS LATENCY: 35.6981 cycles
cpu0_L1D AVERAGE itMISS LATENCY: 0.684483 cycles
cpu0_L1D AVERAGE dtMISS LATENCY: 1.921 cycles
cpu0_L1D PAGE CROSSINGS (TLB HIT):         0 
cpu0_L1D PAGE CROSSINGS (TLB MISS):         0 
cpu0_L1D AVERAGE MISS LATENCY: 38.3036 cycles
cpu0_L2C TOTAL       ACCESS:    7020526  HIT:    1213671  MISS:    5806855  iACCESS:    3314804  iHIT:     687990  iMISS:    2626814  dACCESS:    3504738  dHIT:     377918  dMISS:    3126820  itACCESS:      54765  itHIT:      39346  itMISS:      15419  dtACCESS:     146219  dtHIT:     108417  dtMISS:      37802
cpu0_L2C LOAD         ACCESS:    1711524  HIT:     131269  MISS:    1580255  iACCESS:     781153  iHIT:      94610  iMISS:     686543  dACCESS:     930371  dHIT:      36659  dMISS:     893712  itACCESS:          0  itHIT:          0  itMISS:          0  dtACCESS:          0  dtHIT:          0  dtMISS:          0
cpu0_L2C RFO          ACCESS:     159151  HIT:       8241  MISS:     150910  iACCESS:          0  iHIT:          0  iMISS:          0  dACCESS:     159151  dHIT:       8241  dMISS:     150910  itACCESS:          0  itHIT:          0  itMISS:          0  dtACCESS:          0  dtHIT:          0  dtMISS:          0
cpu0_L2C PREFETCH     ACCESS:    4667079  HIT:     868869  MISS:    3798210  iACCESS:    2533651  iHIT:     593380  iMISS:    1940271  dACCESS:    2133428  dHIT:     275489  dMISS:    1857939  itACCESS:          0  itHIT:          0  itMISS:          0  dtACCESS:          0  dtHIT:          0  dtMISS:          0
cpu0_L2C WRITE        ACCESS:     281788  HIT:      57529  MISS:     224259  iACCESS:          0  iHIT:          0  iMISS:          0  dACCESS:     281788  dHIT:      57529  dMISS:     224259  itACCESS:          0  itHIT:          0  itMISS:          0  dtACCESS:          0  dtHIT:          0  dtMISS:          0
cpu0_L2C TRANSLATION  ACCESS:     200984  HIT:     147763  MISS:      53221  iACCESS:          0  iHIT:          0  iMISS:          0  dACCESS:          0  dHIT:          0  dMISS:          0  itACCESS:      54765  itHIT:      39346  itMISS:      15419  dtACCESS:     146219  dtHIT:     108417  dtMISS:      37802
cpu0_L2C PREFETCH  REQUESTED:    1385946  ISSUED:    1385946  CROSSED:          0  USEFUL:     426783  USELESS:     392821
cpu0_L2C AVERAGE iMISS LATENCY: 15.5303 cycles
cpu0_L2C AVERAGE dMISS LATENCY: 26.1655 cycles
cpu0_L2C AVERAGE itMISS LATENCY: 0.33889 cycles
cpu0_L2C AVERAGE dtMISS LATENCY: 0.962953 cycles
cpu0_L2C PAGE CROSSINGS (TLB HIT):         0 
cpu0_L2C PAGE CROSSINGS (TLB MISS):         0 
cpu0_L2C AVERAGE MISS LATENCY: 42.9976 cycles
LLC TOTAL       ACCESS:    5718211  HIT:    4813805  MISS:     904406  iACCESS:    2569134  iHIT:    2294009  iMISS:     275125  dACCESS:    3095856  dHIT:    2503397  dMISS:     592459  itACCESS:      15419  itHIT:       5875  itMISS:       9544  dtACCESS:      37802  dtHIT:      10524  dtMISS:      27278
LLC LOAD         ACCESS:    1577484  HIT:    1369122  MISS:     208362  iACCESS:     684884  iHIT:     625562  iMISS:      59322  dACCESS:     892600  dHIT:     743560  dMISS:     149040  itACCESS:          0  itHIT:          0  itMISS:          0  dtACCESS:          0  dtHIT:          0  dtMISS:          0
LLC RFO          ACCESS:     150902  HIT:     108032  MISS:      42870  iACCESS:          0  iHIT:          0  iMISS:          0  dACCESS:     150902  dHIT:     108032  dMISS:      42870  itACCESS:          0  itHIT:          0  itMISS:          0  dtACCESS:          0  dtHIT:          0  dtMISS:          0
LLC PREFETCH     ACCESS:    3680608  HIT:    3064256  MISS:     616352  iACCESS:    1884250  iHIT:    1668447  iMISS:     215803  dACCESS:    1796358  dHIT:    1395809  dMISS:     400549  itACCESS:          0  itHIT:          0  itMISS:          0  dtACCESS:          0  dtHIT:          0  dtMISS:          0
LLC WRITE        ACCESS:     255996  HIT:     255996  MISS:          0  iACCESS:          0  iHIT:          0  iMISS:          0  dACCESS:     255996  dHIT:     255996  dMISS:          0  itACCESS:          0  itHIT:          0  itMISS:          0  dtACCESS:          0  dtHIT:          0  dtMISS:          0
LLC TRANSLATION  ACCESS:      53221  HIT:      16399  MISS:      36822  iACCESS:          0  iHIT:          0  iMISS:          0  dACCESS:          0  dHIT:          0  dMISS:          0  itACCESS:      15419  itHIT:       5875  itMISS:       9544  dtACCESS:      37802  dtHIT:      10524  dtMISS:      27278
LLC PREFETCH  REQUESTED:          0  ISSUED:          0  CROSSED:          0  USEFUL:          0  USELESS:          0
LLC AVERAGE iMISS LATENCY: 44.875 cycles
LLC AVERAGE dMISS LATENCY: 107.495 cycles
LLC AVERAGE itMISS LATENCY: 1.84207 cycles
LLC AVERAGE dtMISS LATENCY: 5.36141 cycles
LLC PAGE CROSSINGS (TLB HIT):         0 
LLC PAGE CROSSINGS (TLB MISS):         0 
LLC AVERAGE MISS LATENCY: 159.573 cycles

PageTableWalker TOTAL       ACCESS:      85442  
PageTableWalker AVERAGE LATENCY: 4.26767 cycles
PageTableWalker TOTAL LATENCY: 364638 cycles

DRAM Statistics
Channel 0
 RQ ROW_BUFFER_HIT:     257870
  ROW_BUFFER_MISS:     645864
 AVG DBUS CONGESTED CYCLE:    3.64524
 WQ ROW_BUFFER_HIT:      22581
  ROW_BUFFER_MISS:      29510  FULL:          0

