last_page:0x200000000000000
VMEM_RES_CAP:0x100000
PAGE_SIZE:4096
LOG2_PAGE_SIZE:12
LOG2_PAGE_TABLE_SIZE:9
page_table_levels:5
WARNING: physical memory size is smaller than virtual memory size
FDiP enabled with aggresivity 16

*** ChampSim Multicore Out-of-Order Simulator ***

Warmup Instructions: 50000000
Simulation Instructions: 100000000
Number of CPUs: 1
Small page size: 4096
Large page size: 2097152

CPU 0 Bimodal branch predictor
Basic BTB sets: 1024 ways: 8 indirect buffer size: 4096 RAS size: 64
Instruction page size distrubution: 0
Loading instruction page size distribution from /home/bsc/bsc018186/scratch/itp_asplos25_AE/dump/srv506_ap.pdst
Data page size distrubution: 0
Loading data page size distribution from /home/bsc/bsc018186/scratch/itp_asplos25_AE/dump/srv506_ap.pdst
cpu0_L2C IP-based stride prefetcher
cpu0_L1D next line prefetcher
cpu0_L1I next line prefetcher
Off-chip DRAM Size: 4 GiB Channels: 1 Width: 64-bit Data Rate: 3200 MT/s
Heartbeat CPU 0 instructions: 10000002 cycles: 2500128 heartbeat IPC: 3.9998 cumulative IPC: 3.9998 (Simulation time: 0 hr 0 min 34 sec) 
Heartbeat CPU 0 instructions: 20000000 cycles: 5000185 heartbeat IPC: 3.99991 cumulative IPC: 3.99986 (Simulation time: 0 hr 1 min 13 sec) 
Heartbeat CPU 0 instructions: 30000001 cycles: 7500228 heartbeat IPC: 3.99994 cumulative IPC: 3.99988 (Simulation time: 0 hr 1 min 56 sec) 
Heartbeat CPU 0 instructions: 40000003 cycles: 10000251 heartbeat IPC: 3.99997 cumulative IPC: 3.9999 (Simulation time: 0 hr 2 min 33 sec) 
Heartbeat CPU 0 instructions: 50000003 cycles: 12500268 heartbeat IPC: 3.99998 cumulative IPC: 3.99992 (Simulation time: 0 hr 3 min 10 sec) 
Warmup finished CPU 0 instructions: 50000003 cycles: 12500269 cumulative IPC: 3.99992 (Simulation time: 0 hr 3 min 10 sec) 

Warmup complete CPU 0 instructions: 50000003 cycles: 12500269 (Simulation time: 0 hr 3 min 10 sec) 

Heartbeat CPU 0 instructions: 60000003 cycles: 28444150 heartbeat IPC: 0.6272 cumulative IPC: 0.6272 (Simulation time: 0 hr 4 min 11 sec) 
Heartbeat CPU 0 instructions: 70000001 cycles: 44445999 heartbeat IPC: 0.624928 cumulative IPC: 0.626062 (Simulation time: 0 hr 5 min 12 sec) 
Heartbeat CPU 0 instructions: 80000001 cycles: 61225826 heartbeat IPC: 0.595954 cumulative IPC: 0.615694 (Simulation time: 0 hr 6 min 14 sec) 
Heartbeat CPU 0 instructions: 90000001 cycles: 76794973 heartbeat IPC: 0.642296 cumulative IPC: 0.622136 (Simulation time: 0 hr 7 min 14 sec) 
Heartbeat CPU 0 instructions: 100000003 cycles: 92634191 heartbeat IPC: 0.631345 cumulative IPC: 0.623956 (Simulation time: 0 hr 8 min 15 sec) 
*** Reached end of trace: /gpfs/projects/bsc18/MN4/bsc18/romol/ChampSim/traces/qualcomm_srv/srv506_ap.champsimtrace.xz
Heartbeat CPU 0 instructions: 110000001 cycles: 108667019 heartbeat IPC: 0.623721 cumulative IPC: 0.623917 (Simulation time: 0 hr 9 min 16 sec) 
Heartbeat CPU 0 instructions: 120000003 cycles: 124441015 heartbeat IPC: 0.633955 cumulative IPC: 0.625331 (Simulation time: 0 hr 10 min 16 sec) 
Heartbeat CPU 0 instructions: 130000000 cycles: 139900993 heartbeat IPC: 0.646832 cumulative IPC: 0.62794 (Simulation time: 0 hr 11 min 17 sec) 
Heartbeat CPU 0 instructions: 140000002 cycles: 154857313 heartbeat IPC: 0.668614 cumulative IPC: 0.632214 (Simulation time: 0 hr 12 min 16 sec) 
Heartbeat CPU 0 instructions: 150000000 cycles: 171166982 heartbeat IPC: 0.613134 cumulative IPC: 0.630252 (Simulation time: 0 hr 13 min 18 sec) 
Simulation finished CPU 0 instructions: 100000002 cycles: 158666716 cumulative IPC: 0.630252 (Simulation time: 0 hr 13 min 18 sec) 

Simulation complete CPU 0 instructions: 100000002 cycles: 158666716 (Simulation time: 0 hr 13 min 18 sec) 


ChampSim completed all CPUs

Saving instructions large page distribution to /home/bsc/bsc018186/scratch/itp_asplos25_AE/dump/srv506_ap.pdst...
Saving data large page distribution to /home/bsc/bsc018186/scratch/itp_asplos25_AE/dump/srv506_ap.pdst...
=== Simulation ===
CPU 0 runs /gpfs/projects/bsc18/MN4/bsc18/romol/ChampSim/traces/qualcomm_srv/srv506_ap.champsimtrace.xz

Region of Interest Statistics

CPU 0 cumulative IPC: 0.630252 instructions: 100000002 cycles: 158666716
CPU 0 Branch Prediction Accuracy: 82.859% MPKI: 30.6843 Average ROB Occupancy at Mispredict: 12.4645
Branch type MPKI
BRANCH_DIRECT_JUMP: 1.0352
BRANCH_INDIRECT: 15.6921
BRANCH_CONDITIONAL: 10.1968
BRANCH_DIRECT_CALL: 1.88252
BRANCH_INDIRECT_CALL: 0.53029
BRANCH_RETURN: 1.34747

Instructions large pages: 0
Instructions small pages: 1084
Large page distribution for instructions: 0%

Data large pages: 0
Data small pages: 9900
Large page distribution for data: 0%

cpu0_L1I TOTAL       ACCESS:   35072939  HIT:   27209695  MISS:    7863244  iACCESS:   35072939  iHIT:   27209695  iMISS:    7863244  dACCESS:          0  dHIT:          0  dMISS:          0  itACCESS:          0  itHIT:          0  itMISS:          0  dtACCESS:          0  dtHIT:          0  dtMISS:          0
cpu0_L1I LOAD         ACCESS:   10285345  HIT:    8074800  MISS:    2210545  iACCESS:   10285345  iHIT:    8074800  iMISS:    2210545  dACCESS:          0  dHIT:          0  dMISS:          0  itACCESS:          0  itHIT:          0  itMISS:          0  dtACCESS:          0  dtHIT:          0  dtMISS:          0
cpu0_L1I RFO          ACCESS:          0  HIT:          0  MISS:          0  iACCESS:          0  iHIT:          0  iMISS:          0  dACCESS:          0  dHIT:          0  dMISS:          0  itACCESS:          0  itHIT:          0  itMISS:          0  dtACCESS:          0  dtHIT:          0  dtMISS:          0
cpu0_L1I PREFETCH     ACCESS:   24787594  HIT:   19134895  MISS:    5652699  iACCESS:   24787594  iHIT:   19134895  iMISS:    5652699  dACCESS:          0  dHIT:          0  dMISS:          0  itACCESS:          0  itHIT:          0  itMISS:          0  dtACCESS:          0  dtHIT:          0  dtMISS:          0
cpu0_L1I WRITE        ACCESS:          0  HIT:          0  MISS:          0  iACCESS:          0  iHIT:          0  iMISS:          0  dACCESS:          0  dHIT:          0  dMISS:          0  itACCESS:          0  itHIT:          0  itMISS:          0  dtACCESS:          0  dtHIT:          0  dtMISS:          0
cpu0_L1I TRANSLATION  ACCESS:          0  HIT:          0  MISS:          0  iACCESS:          0  iHIT:          0  iMISS:          0  dACCESS:          0  dHIT:          0  dMISS:          0  itACCESS:          0  itHIT:          0  itMISS:          0  dtACCESS:          0  dtHIT:          0  dtMISS:          0
cpu0_L1I PREFETCH  REQUESTED:   27328791  ISSUED:   27328790  CROSSED:          0  USEFUL:    1933257  USELESS:     630170
cpu0_L1I AVERAGE iMISS LATENCY: 13.4268 cycles
cpu0_L1I AVERAGE dMISS LATENCY: 0 cycles
cpu0_L1I AVERAGE itMISS LATENCY: 0 cycles
cpu0_L1I AVERAGE dtMISS LATENCY: 0 cycles
cpu0_L1I PAGE CROSSINGS (TLB HIT):         0 
cpu0_L1I PAGE CROSSINGS (TLB MISS):         0 
cpu0_L1I AVERAGE MISS LATENCY: 13.4268 cycles
cpu0_ITLB TOTAL       ACCESS:   29298060  HIT:   27345977  MISS:    1952083  iACCESS:   29298060  iHIT:   27345977  iMISS:    1952083  dACCESS:          0  dHIT:          0  dMISS:          0  itACCESS:          0  itHIT:          0  itMISS:          0  dtACCESS:          0  dtHIT:          0  dtMISS:          0
cpu0_ITLB LOAD         ACCESS:   29298060  HIT:   27345977  MISS:    1952083  iACCESS:   29298060  iHIT:   27345977  iMISS:    1952083  dACCESS:          0  dHIT:          0  dMISS:          0  itACCESS:          0  itHIT:          0  itMISS:          0  dtACCESS:          0  dtHIT:          0  dtMISS:          0
cpu0_ITLB RFO          ACCESS:          0  HIT:          0  MISS:          0  iACCESS:          0  iHIT:          0  iMISS:          0  dACCESS:          0  dHIT:          0  dMISS:          0  itACCESS:          0  itHIT:          0  itMISS:          0  dtACCESS:          0  dtHIT:          0  dtMISS:          0
cpu0_ITLB PREFETCH     ACCESS:          0  HIT:          0  MISS:          0  iACCESS:          0  iHIT:          0  iMISS:          0  dACCESS:          0  dHIT:          0  dMISS:          0  itACCESS:          0  itHIT:          0  itMISS:          0  dtACCESS:          0  dtHIT:          0  dtMISS:          0
cpu0_ITLB WRITE        ACCESS:          0  HIT:          0  MISS:          0  iACCESS:          0  iHIT:          0  iMISS:          0  dACCESS:          0  dHIT:          0  dMISS:          0  itACCESS:          0  itHIT:          0  itMISS:          0  dtACCESS:          0  dtHIT:          0  dtMISS:          0
cpu0_ITLB TRANSLATION  ACCESS:          0  HIT:          0  MISS:          0  iACCESS:          0  iHIT:          0  iMISS:          0  dACCESS:          0  dHIT:          0  dMISS:          0  itACCESS:          0  itHIT:          0  itMISS:          0  dtACCESS:          0  dtHIT:          0  dtMISS:          0
cpu0_ITLB PREFETCH  REQUESTED:          0  ISSUED:          0  CROSSED:          0  USEFUL:     316456  USELESS:      64883
cpu0_ITLB AVERAGE iMISS LATENCY: 5.3857 cycles
cpu0_ITLB AVERAGE dMISS LATENCY: 0 cycles
cpu0_ITLB AVERAGE itMISS LATENCY: 0 cycles
cpu0_ITLB AVERAGE dtMISS LATENCY: 0 cycles
cpu0_ITLB PAGE CROSSINGS (TLB HIT):         0 
cpu0_ITLB PAGE CROSSINGS (TLB MISS):         0 
cpu0_ITLB AVERAGE MISS LATENCY: 5.3857 cycles
cpu0_DTLB TOTAL       ACCESS:   27732007  HIT:   25685849  MISS:    2046158  iACCESS:          0  iHIT:          0  iMISS:          0  dACCESS:   27732007  dHIT:   25685849  dMISS:    2046158  itACCESS:          0  itHIT:          0  itMISS:          0  dtACCESS:          0  dtHIT:          0  dtMISS:          0
cpu0_DTLB LOAD         ACCESS:   27732007  HIT:   25685849  MISS:    2046158  iACCESS:          0  iHIT:          0  iMISS:          0  dACCESS:   27732007  dHIT:   25685849  dMISS:    2046158  itACCESS:          0  itHIT:          0  itMISS:          0  dtACCESS:          0  dtHIT:          0  dtMISS:          0
cpu0_DTLB RFO          ACCESS:          0  HIT:          0  MISS:          0  iACCESS:          0  iHIT:          0  iMISS:          0  dACCESS:          0  dHIT:          0  dMISS:          0  itACCESS:          0  itHIT:          0  itMISS:          0  dtACCESS:          0  dtHIT:          0  dtMISS:          0
cpu0_DTLB PREFETCH     ACCESS:          0  HIT:          0  MISS:          0  iACCESS:          0  iHIT:          0  iMISS:          0  dACCESS:          0  dHIT:          0  dMISS:          0  itACCESS:          0  itHIT:          0  itMISS:          0  dtACCESS:          0  dtHIT:          0  dtMISS:          0
cpu0_DTLB WRITE        ACCESS:          0  HIT:          0  MISS:          0  iACCESS:          0  iHIT:          0  iMISS:          0  dACCESS:          0  dHIT:          0  dMISS:          0  itACCESS:          0  itHIT:          0  itMISS:          0  dtACCESS:          0  dtHIT:          0  dtMISS:          0
cpu0_DTLB TRANSLATION  ACCESS:          0  HIT:          0  MISS:          0  iACCESS:          0  iHIT:          0  iMISS:          0  dACCESS:          0  dHIT:          0  dMISS:          0  itACCESS:          0  itHIT:          0  itMISS:          0  dtACCESS:          0  dtHIT:          0  dtMISS:          0
cpu0_DTLB PREFETCH  REQUESTED:          0  ISSUED:          0  CROSSED:          0  USEFUL:          0  USELESS:          0
cpu0_DTLB AVERAGE iMISS LATENCY: 0 cycles
cpu0_DTLB AVERAGE dMISS LATENCY: 15.6683 cycles
cpu0_DTLB AVERAGE itMISS LATENCY: 0 cycles
cpu0_DTLB AVERAGE dtMISS LATENCY: 0 cycles
cpu0_DTLB PAGE CROSSINGS (TLB HIT):         0 
cpu0_DTLB PAGE CROSSINGS (TLB MISS):         0 
cpu0_DTLB AVERAGE MISS LATENCY: 15.6683 cycles
cpu0_STLB TOTAL       ACCESS:    1628879  HIT:    1459345  MISS:     169534  iACCESS:     381355  iHIT:     322303  iMISS:      59052  dACCESS:    1247524  dHIT:    1137042  dMISS:     110482  itACCESS:          0  itHIT:          0  itMISS:          0  dtACCESS:          0  dtHIT:          0  dtMISS:          0
cpu0_STLB LOAD         ACCESS:    1628879  HIT:    1459345  MISS:     169534  iACCESS:     381355  iHIT:     322303  iMISS:      59052  dACCESS:    1247524  dHIT:    1137042  dMISS:     110482  itACCESS:          0  itHIT:          0  itMISS:          0  dtACCESS:          0  dtHIT:          0  dtMISS:          0
cpu0_STLB RFO          ACCESS:          0  HIT:          0  MISS:          0  iACCESS:          0  iHIT:          0  iMISS:          0  dACCESS:          0  dHIT:          0  dMISS:          0  itACCESS:          0  itHIT:          0  itMISS:          0  dtACCESS:          0  dtHIT:          0  dtMISS:          0
cpu0_STLB PREFETCH     ACCESS:          0  HIT:          0  MISS:          0  iACCESS:          0  iHIT:          0  iMISS:          0  dACCESS:          0  dHIT:          0  dMISS:          0  itACCESS:          0  itHIT:          0  itMISS:          0  dtACCESS:          0  dtHIT:          0  dtMISS:          0
cpu0_STLB WRITE        ACCESS:          0  HIT:          0  MISS:          0  iACCESS:          0  iHIT:          0  iMISS:          0  dACCESS:          0  dHIT:          0  dMISS:          0  itACCESS:          0  itHIT:          0  itMISS:          0  dtACCESS:          0  dtHIT:          0  dtMISS:          0
cpu0_STLB TRANSLATION  ACCESS:          0  HIT:          0  MISS:          0  iACCESS:          0  iHIT:          0  iMISS:          0  dACCESS:          0  dHIT:          0  dMISS:          0  itACCESS:          0  itHIT:          0  itMISS:          0  dtACCESS:          0  dtHIT:          0  dtMISS:          0
cpu0_STLB PREFETCH  REQUESTED:          0  ISSUED:          0  CROSSED:          0  USEFUL:          0  USELESS:          0
cpu0_STLB AVERAGE iMISS LATENCY: 44.2258 cycles
cpu0_STLB AVERAGE dMISS LATENCY: 130.446 cycles
cpu0_STLB AVERAGE itMISS LATENCY: 0 cycles
cpu0_STLB AVERAGE dtMISS LATENCY: 0 cycles
cpu0_STLB PAGE CROSSINGS (TLB HIT):         0 
cpu0_STLB PAGE CROSSINGS (TLB MISS):         0 
cpu0_STLB AVERAGE MISS LATENCY: 174.672 cycles
cpu0_L1D TOTAL       ACCESS:   41548085  HIT:   38030404  MISS:    3517681  iACCESS:          0  iHIT:          0  iMISS:          0  dACCESS:   41317743  dHIT:   38010235  dMISS:    3307508  itACCESS:      64158  itHIT:       9423  itMISS:      54735  dtACCESS:     166184  dtHIT:      10746  dtMISS:     155438
cpu0_L1D LOAD         ACCESS:   18952173  HIT:   17438585  MISS:    1513588  iACCESS:          0  iHIT:          0  iMISS:          0  dACCESS:   18952173  dHIT:   17438585  dMISS:    1513588  itACCESS:          0  itHIT:          0  itMISS:          0  dtACCESS:          0  dtHIT:          0  dtMISS:          0
cpu0_L1D RFO          ACCESS:          0  HIT:          0  MISS:          0  iACCESS:          0  iHIT:          0  iMISS:          0  dACCESS:          0  dHIT:          0  dMISS:          0  itACCESS:          0  itHIT:          0  itMISS:          0  dtACCESS:          0  dtHIT:          0  dtMISS:          0
cpu0_L1D PREFETCH     ACCESS:   12168987  HIT:   10807390  MISS:    1361597  iACCESS:          0  iHIT:          0  iMISS:          0  dACCESS:   12168987  dHIT:   10807390  dMISS:    1361597  itACCESS:          0  itHIT:          0  itMISS:          0  dtACCESS:          0  dtHIT:          0  dtMISS:          0
cpu0_L1D WRITE        ACCESS:   10196583  HIT:    9764260  MISS:     432323  iACCESS:          0  iHIT:          0  iMISS:          0  dACCESS:   10196583  dHIT:    9764260  dMISS:     432323  itACCESS:          0  itHIT:          0  itMISS:          0  dtACCESS:          0  dtHIT:          0  dtMISS:          0
cpu0_L1D TRANSLATION  ACCESS:     230342  HIT:      20169  MISS:     210173  iACCESS:          0  iHIT:          0  iMISS:          0  dACCESS:          0  dHIT:          0  dMISS:          0  itACCESS:      64158  itHIT:       9423  itMISS:      54735  dtACCESS:     166184  dtHIT:      10746  dtMISS:     155438
cpu0_L1D PREFETCH  REQUESTED:   18952173  ISSUED:   16963553  CROSSED:          0  USEFUL:     304901  USELESS:     701967
cpu0_L1D AVERAGE iMISS LATENCY: 0 cycles
cpu0_L1D AVERAGE dMISS LATENCY: 33.8518 cycles
cpu0_L1D AVERAGE itMISS LATENCY: 1.9812 cycles
cpu0_L1D AVERAGE dtMISS LATENCY: 5.6087 cycles
cpu0_L1D PAGE CROSSINGS (TLB HIT):         0 
cpu0_L1D PAGE CROSSINGS (TLB MISS):         0 
cpu0_L1D AVERAGE MISS LATENCY: 41.4417 cycles
cpu0_L2C TOTAL       ACCESS:    7006564  HIT:    4081027  MISS:    2925537  iACCESS:    3313936  iHIT:    2238105  iMISS:    1075831  dACCESS:    3491563  dHIT:    1815032  dMISS:    1676531  itACCESS:      54735  itHIT:       9415  itMISS:      45320  dtACCESS:     146330  dtHIT:      18475  dtMISS:     127855
cpu0_L2C LOAD         ACCESS:    1722062  HIT:    1047616  MISS:     674446  iACCESS:     789585  iHIT:     561129  iMISS:     228456  dACCESS:     932477  dHIT:     486487  dMISS:     445990  itACCESS:          0  itHIT:          0  itMISS:          0  dtACCESS:          0  dtHIT:          0  dtMISS:          0
cpu0_L2C RFO          ACCESS:     159025  HIT:      72930  MISS:      86095  iACCESS:          0  iHIT:          0  iMISS:          0  dACCESS:     159025  dHIT:      72930  dMISS:      86095  itACCESS:          0  itHIT:          0  itMISS:          0  dtACCESS:          0  dtHIT:          0  dtMISS:          0
cpu0_L2C PREFETCH     ACCESS:    4642175  HIT:    2651475  MISS:    1990700  iACCESS:    2524351  iHIT:    1676976  iMISS:     847375  dACCESS:    2117824  dHIT:     974499  dMISS:    1143325  itACCESS:          0  itHIT:          0  itMISS:          0  dtACCESS:          0  dtHIT:          0  dtMISS:          0
cpu0_L2C WRITE        ACCESS:     282237  HIT:     281116  MISS:       1121  iACCESS:          0  iHIT:          0  iMISS:          0  dACCESS:     282237  dHIT:     281116  dMISS:       1121  itACCESS:          0  itHIT:          0  itMISS:          0  dtACCESS:          0  dtHIT:          0  dtMISS:          0
cpu0_L2C TRANSLATION  ACCESS:     201065  HIT:      27890  MISS:     173175  iACCESS:          0  iHIT:          0  iMISS:          0  dACCESS:          0  dHIT:          0  dMISS:          0  itACCESS:      54735  itHIT:       9415  itMISS:      45320  dtACCESS:     146330  dtHIT:      18475  dtMISS:     127855
cpu0_L2C PREFETCH  REQUESTED:    1367624  ISSUED:    1367533  CROSSED:          0  USEFUL:     326649  USELESS:     232250
cpu0_L2C AVERAGE iMISS LATENCY: 25.8119 cycles
cpu0_L2C AVERAGE dMISS LATENCY: 48.6146 cycles
cpu0_L2C AVERAGE itMISS LATENCY: 2.19777 cycles
cpu0_L2C AVERAGE dtMISS LATENCY: 6.24623 cycles
cpu0_L2C PAGE CROSSINGS (TLB HIT):         0 
cpu0_L2C PAGE CROSSINGS (TLB MISS):         0 
cpu0_L2C AVERAGE MISS LATENCY: 82.8704 cycles
LLC TOTAL       ACCESS:    2940153  HIT:    1753808  MISS:    1186345  iACCESS:    1017648  iHIT:     639652  iMISS:     377996  dACCESS:    1749330  dHIT:    1059583  dMISS:     689747  itACCESS:      45320  itHIT:      13167  itMISS:      32153  dtACCESS:     127855  dtHIT:      41406  dtMISS:      86449
LLC LOAD         ACCESS:     672228  HIT:     418205  MISS:     254023  iACCESS:     227234  iHIT:     146450  iMISS:      80784  dACCESS:     444994  dHIT:     271755  dMISS:     173239  itACCESS:          0  itHIT:          0  itMISS:          0  dtACCESS:          0  dtHIT:          0  dtMISS:          0
LLC RFO          ACCESS:      86086  HIT:      45406  MISS:      40680  iACCESS:          0  iHIT:          0  iMISS:          0  dACCESS:      86086  dHIT:      45406  dMISS:      40680  itACCESS:          0  itHIT:          0  itMISS:          0  dtACCESS:          0  dtHIT:          0  dtMISS:          0
LLC PREFETCH     ACCESS:    1875211  HIT:    1109804  MISS:     765407  iACCESS:     790414  iHIT:     493202  iMISS:     297212  dACCESS:    1084797  dHIT:     616602  dMISS:     468195  itACCESS:          0  itHIT:          0  itMISS:          0  dtACCESS:          0  dtHIT:          0  dtMISS:          0
LLC WRITE        ACCESS:     133453  HIT:     125820  MISS:       7633  iACCESS:          0  iHIT:          0  iMISS:          0  dACCESS:     133453  dHIT:     125820  dMISS:       7633  itACCESS:          0  itHIT:          0  itMISS:          0  dtACCESS:          0  dtHIT:          0  dtMISS:          0
LLC TRANSLATION  ACCESS:     173175  HIT:      54573  MISS:     118602  iACCESS:          0  iHIT:          0  iMISS:          0  dACCESS:          0  dHIT:          0  dMISS:          0  itACCESS:      45320  itHIT:      13167  itMISS:      32153  dtACCESS:     127855  dtHIT:      41406  dtMISS:      86449
LLC PREFETCH  REQUESTED:          0  ISSUED:          0  CROSSED:          0  USEFUL:          0  USELESS:          0
LLC AVERAGE iMISS LATENCY: 46.9517 cycles
LLC AVERAGE dMISS LATENCY: 93.6384 cycles
LLC AVERAGE itMISS LATENCY: 4.66886 cycles
LLC AVERAGE dtMISS LATENCY: 13.2898 cycles
LLC PAGE CROSSINGS (TLB HIT):         0 
LLC PAGE CROSSINGS (TLB MISS):         0 
LLC AVERAGE MISS LATENCY: 158.549 cycles

PageTableWalker TOTAL       ACCESS:      85440  
PageTableWalker AVERAGE LATENCY: 5.28164 cycles
PageTableWalker TOTAL LATENCY: 451263 cycles

DRAM Statistics
Channel 0
 RQ ROW_BUFFER_HIT:     316377
  ROW_BUFFER_MISS:     861645
 AVG DBUS CONGESTED CYCLE:    3.63022
 WQ ROW_BUFFER_HIT:      22768
  ROW_BUFFER_MISS:      21159  FULL:          0

