last_page:0x200000000000000
VMEM_RES_CAP:0x100000
PAGE_SIZE:4096
LOG2_PAGE_SIZE:12
LOG2_PAGE_TABLE_SIZE:9
page_table_levels:5
WARNING: physical memory size is smaller than virtual memory size
FDiP enabled with aggresivity 16

*** ChampSim Multicore Out-of-Order Simulator ***

Warmup Instructions: 50000000
Simulation Instructions: 100000000
Number of CPUs: 1
Small page size: 4096
Large page size: 2097152

CPU 0 Bimodal branch predictor
Basic BTB sets: 1024 ways: 8 indirect buffer size: 4096 RAS size: 64
Instruction page size distrubution: 0
Loading instruction page size distribution from /home/bsc/bsc018186/scratch/itp_asplos25_AE/dump/srv527_ap.pdst
Data page size distrubution: 0
Loading data page size distribution from /home/bsc/bsc018186/scratch/itp_asplos25_AE/dump/srv527_ap.pdst
cpu0_L2C IP-based stride prefetcher
cpu0_L2C is using PTP replacement policy:
	TLB_STRESS_THRESHOLD:0
	PTE_EVICTION_RATIO:0
cpu0_L1D next line prefetcher
cpu0_STLB using iTP with max lru@8
cpu0_STLB using iTP with instr@0 and data@2
Init sat counter with 3 bits (max:50).
cpu0_L1I next line prefetcher
Off-chip DRAM Size: 4 GiB Channels: 1 Width: 64-bit Data Rate: 3200 MT/s
Heartbeat CPU 0 instructions: 10000001 cycles: 2500245 heartbeat IPC: 3.99961 cumulative IPC: 3.99961 (Simulation time: 0 hr 0 min 38 sec) 
Heartbeat CPU 0 instructions: 20000003 cycles: 5000363 heartbeat IPC: 3.99982 cumulative IPC: 3.99972 (Simulation time: 0 hr 1 min 16 sec) 
Heartbeat CPU 0 instructions: 30000003 cycles: 7501089 heartbeat IPC: 3.99884 cumulative IPC: 3.99942 (Simulation time: 0 hr 1 min 54 sec) 
Heartbeat CPU 0 instructions: 40000002 cycles: 10001476 heartbeat IPC: 3.99939 cumulative IPC: 3.99941 (Simulation time: 0 hr 2 min 33 sec) 
Heartbeat CPU 0 instructions: 50000003 cycles: 12502993 heartbeat IPC: 3.99758 cumulative IPC: 3.99905 (Simulation time: 0 hr 3 min 12 sec) 
Warmup finished CPU 0 instructions: 50000003 cycles: 12502994 cumulative IPC: 3.99905 (Simulation time: 0 hr 3 min 12 sec) 

Warmup complete CPU 0 instructions: 50000003 cycles: 12502994 (Simulation time: 0 hr 3 min 12 sec) 

Heartbeat CPU 0 instructions: 60000001 cycles: 27122575 heartbeat IPC: 0.684014 cumulative IPC: 0.684014 (Simulation time: 0 hr 4 min 18 sec) 
Heartbeat CPU 0 instructions: 70000000 cycles: 43167160 heartbeat IPC: 0.623264 cumulative IPC: 0.652228 (Simulation time: 0 hr 5 min 30 sec) 
Heartbeat CPU 0 instructions: 80000001 cycles: 59668603 heartbeat IPC: 0.606008 cumulative IPC: 0.636057 (Simulation time: 0 hr 6 min 42 sec) 
Heartbeat CPU 0 instructions: 90000002 cycles: 74649099 heartbeat IPC: 0.667535 cumulative IPC: 0.643645 (Simulation time: 0 hr 7 min 51 sec) 
Heartbeat CPU 0 instructions: 100000003 cycles: 89651773 heartbeat IPC: 0.666548 cumulative IPC: 0.648099 (Simulation time: 0 hr 9 min 1 sec) 
*** Reached end of trace: /gpfs/projects/bsc18/MN4/bsc18/romol/ChampSim/traces/qualcomm_srv/srv527_ap.champsimtrace.xz
Heartbeat CPU 0 instructions: 110000000 cycles: 105994660 heartbeat IPC: 0.611887 cumulative IPC: 0.641769 (Simulation time: 0 hr 10 min 13 sec) 
Heartbeat CPU 0 instructions: 120000001 cycles: 122377811 heartbeat IPC: 0.610384 cumulative IPC: 0.637089 (Simulation time: 0 hr 11 min 20 sec) 
Heartbeat CPU 0 instructions: 130000001 cycles: 140036826 heartbeat IPC: 0.566284 cumulative IPC: 0.627285 (Simulation time: 0 hr 12 min 29 sec) 
Heartbeat CPU 0 instructions: 140000001 cycles: 155153125 heartbeat IPC: 0.661538 cumulative IPC: 0.630915 (Simulation time: 0 hr 13 min 37 sec) 
Heartbeat CPU 0 instructions: 150000003 cycles: 171814281 heartbeat IPC: 0.600199 cumulative IPC: 0.627702 (Simulation time: 0 hr 14 min 48 sec) 
Simulation finished CPU 0 instructions: 100000000 cycles: 159311288 cumulative IPC: 0.627702 (Simulation time: 0 hr 14 min 48 sec) 

Simulation complete CPU 0 instructions: 100000000 cycles: 159311288 (Simulation time: 0 hr 14 min 48 sec) 


ChampSim completed all CPUs

Saving instructions large page distribution to /home/bsc/bsc018186/scratch/itp_asplos25_AE/dump/srv527_ap.pdst...
Saving data large page distribution to /home/bsc/bsc018186/scratch/itp_asplos25_AE/dump/srv527_ap.pdst...
=== Simulation ===
CPU 0 runs /gpfs/projects/bsc18/MN4/bsc18/romol/ChampSim/traces/qualcomm_srv/srv527_ap.champsimtrace.xz

Region of Interest Statistics

CPU 0 cumulative IPC: 0.627702 instructions: 100000000 cycles: 159311288
CPU 0 Branch Prediction Accuracy: 82.8884% MPKI: 28.8941 Average ROB Occupancy at Mispredict: 11.9869
Branch type MPKI
BRANCH_DIRECT_JUMP: 1.01524
BRANCH_INDIRECT: 14.7113
BRANCH_CONDITIONAL: 9.65228
BRANCH_DIRECT_CALL: 1.8001
BRANCH_INDIRECT_CALL: 0.455261
BRANCH_RETURN: 1.25997

Instructions large pages: 0
Instructions small pages: 1134
Large page distribution for instructions: 0%

Data large pages: 0
Data small pages: 9370
Large page distribution for data: 0%

cpu0_L1I TOTAL       ACCESS:   32279304  HIT:   24849433  MISS:    7429871  iACCESS:   32279304  iHIT:   24849433  iMISS:    7429871  dACCESS:          0  dHIT:          0  dMISS:          0  itACCESS:          0  itHIT:          0  itMISS:          0  dtACCESS:          0  dtHIT:          0  dtMISS:          0
cpu0_L1I LOAD         ACCESS:    9225860  HIT:    7150546  MISS:    2075314  iACCESS:    9225860  iHIT:    7150546  iMISS:    2075314  dACCESS:          0  dHIT:          0  dMISS:          0  itACCESS:          0  itHIT:          0  itMISS:          0  dtACCESS:          0  dtHIT:          0  dtMISS:          0
cpu0_L1I RFO          ACCESS:          0  HIT:          0  MISS:          0  iACCESS:          0  iHIT:          0  iMISS:          0  dACCESS:          0  dHIT:          0  dMISS:          0  itACCESS:          0  itHIT:          0  itMISS:          0  dtACCESS:          0  dtHIT:          0  dtMISS:          0
cpu0_L1I PREFETCH     ACCESS:   23053444  HIT:   17698887  MISS:    5354557  iACCESS:   23053444  iHIT:   17698887  iMISS:    5354557  dACCESS:          0  dHIT:          0  dMISS:          0  itACCESS:          0  itHIT:          0  itMISS:          0  dtACCESS:          0  dtHIT:          0  dtMISS:          0
cpu0_L1I WRITE        ACCESS:          0  HIT:          0  MISS:          0  iACCESS:          0  iHIT:          0  iMISS:          0  dACCESS:          0  dHIT:          0  dMISS:          0  itACCESS:          0  itHIT:          0  itMISS:          0  dtACCESS:          0  dtHIT:          0  dtMISS:          0
cpu0_L1I TRANSLATION  ACCESS:          0  HIT:          0  MISS:          0  iACCESS:          0  iHIT:          0  iMISS:          0  dACCESS:          0  dHIT:          0  dMISS:          0  itACCESS:          0  itHIT:          0  itMISS:          0  dtACCESS:          0  dtHIT:          0  dtMISS:          0
cpu0_L1I PREFETCH  REQUESTED:   25141169  ISSUED:   25140571  CROSSED:          0  USEFUL:    1733337  USELESS:     562563
cpu0_L1I AVERAGE iMISS LATENCY: 16.9154 cycles
cpu0_L1I AVERAGE dMISS LATENCY: 0 cycles
cpu0_L1I AVERAGE itMISS LATENCY: 0 cycles
cpu0_L1I AVERAGE dtMISS LATENCY: 0 cycles
cpu0_L1I PAGE CROSSINGS (TLB HIT):         0 
cpu0_L1I PAGE CROSSINGS (TLB MISS):         0 
cpu0_L1I AVERAGE MISS LATENCY: 16.9154 cycles
cpu0_ITLB TOTAL       ACCESS:   27019485  HIT:   25274847  MISS:    1744638  iACCESS:   27019485  iHIT:   25274847  iMISS:    1744638  dACCESS:          0  dHIT:          0  dMISS:          0  itACCESS:          0  itHIT:          0  itMISS:          0  dtACCESS:          0  dtHIT:          0  dtMISS:          0
cpu0_ITLB LOAD         ACCESS:   27019485  HIT:   25274847  MISS:    1744638  iACCESS:   27019485  iHIT:   25274847  iMISS:    1744638  dACCESS:          0  dHIT:          0  dMISS:          0  itACCESS:          0  itHIT:          0  itMISS:          0  dtACCESS:          0  dtHIT:          0  dtMISS:          0
cpu0_ITLB RFO          ACCESS:          0  HIT:          0  MISS:          0  iACCESS:          0  iHIT:          0  iMISS:          0  dACCESS:          0  dHIT:          0  dMISS:          0  itACCESS:          0  itHIT:          0  itMISS:          0  dtACCESS:          0  dtHIT:          0  dtMISS:          0
cpu0_ITLB PREFETCH     ACCESS:          0  HIT:          0  MISS:          0  iACCESS:          0  iHIT:          0  iMISS:          0  dACCESS:          0  dHIT:          0  dMISS:          0  itACCESS:          0  itHIT:          0  itMISS:          0  dtACCESS:          0  dtHIT:          0  dtMISS:          0
cpu0_ITLB WRITE        ACCESS:          0  HIT:          0  MISS:          0  iACCESS:          0  iHIT:          0  iMISS:          0  dACCESS:          0  dHIT:          0  dMISS:          0  itACCESS:          0  itHIT:          0  itMISS:          0  dtACCESS:          0  dtHIT:          0  dtMISS:          0
cpu0_ITLB TRANSLATION  ACCESS:          0  HIT:          0  MISS:          0  iACCESS:          0  iHIT:          0  iMISS:          0  dACCESS:          0  dHIT:          0  dMISS:          0  itACCESS:          0  itHIT:          0  itMISS:          0  dtACCESS:          0  dtHIT:          0  dtMISS:          0
cpu0_ITLB PREFETCH  REQUESTED:          0  ISSUED:          0  CROSSED:          0  USEFUL:     285914  USELESS:      52674
cpu0_ITLB AVERAGE iMISS LATENCY: 2.56661 cycles
cpu0_ITLB AVERAGE dMISS LATENCY: 0 cycles
cpu0_ITLB AVERAGE itMISS LATENCY: 0 cycles
cpu0_ITLB AVERAGE dtMISS LATENCY: 0 cycles
cpu0_ITLB PAGE CROSSINGS (TLB HIT):         0 
cpu0_ITLB PAGE CROSSINGS (TLB MISS):         0 
cpu0_ITLB AVERAGE MISS LATENCY: 2.56661 cycles
cpu0_DTLB TOTAL       ACCESS:   28014492  HIT:   26218093  MISS:    1796399  iACCESS:          0  iHIT:          0  iMISS:          0  dACCESS:   28014492  dHIT:   26218093  dMISS:    1796399  itACCESS:          0  itHIT:          0  itMISS:          0  dtACCESS:          0  dtHIT:          0  dtMISS:          0
cpu0_DTLB LOAD         ACCESS:   28014492  HIT:   26218093  MISS:    1796399  iACCESS:          0  iHIT:          0  iMISS:          0  dACCESS:   28014492  dHIT:   26218093  dMISS:    1796399  itACCESS:          0  itHIT:          0  itMISS:          0  dtACCESS:          0  dtHIT:          0  dtMISS:          0
cpu0_DTLB RFO          ACCESS:          0  HIT:          0  MISS:          0  iACCESS:          0  iHIT:          0  iMISS:          0  dACCESS:          0  dHIT:          0  dMISS:          0  itACCESS:          0  itHIT:          0  itMISS:          0  dtACCESS:          0  dtHIT:          0  dtMISS:          0
cpu0_DTLB PREFETCH     ACCESS:          0  HIT:          0  MISS:          0  iACCESS:          0  iHIT:          0  iMISS:          0  dACCESS:          0  dHIT:          0  dMISS:          0  itACCESS:          0  itHIT:          0  itMISS:          0  dtACCESS:          0  dtHIT:          0  dtMISS:          0
cpu0_DTLB WRITE        ACCESS:          0  HIT:          0  MISS:          0  iACCESS:          0  iHIT:          0  iMISS:          0  dACCESS:          0  dHIT:          0  dMISS:          0  itACCESS:          0  itHIT:          0  itMISS:          0  dtACCESS:          0  dtHIT:          0  dtMISS:          0
cpu0_DTLB TRANSLATION  ACCESS:          0  HIT:          0  MISS:          0  iACCESS:          0  iHIT:          0  iMISS:          0  dACCESS:          0  dHIT:          0  dMISS:          0  itACCESS:          0  itHIT:          0  itMISS:          0  dtACCESS:          0  dtHIT:          0  dtMISS:          0
cpu0_DTLB PREFETCH  REQUESTED:          0  ISSUED:          0  CROSSED:          0  USEFUL:          0  USELESS:          0
cpu0_DTLB AVERAGE iMISS LATENCY: 0 cycles
cpu0_DTLB AVERAGE dMISS LATENCY: 15.3737 cycles
cpu0_DTLB AVERAGE itMISS LATENCY: 0 cycles
cpu0_DTLB AVERAGE dtMISS LATENCY: 0 cycles
cpu0_DTLB PAGE CROSSINGS (TLB HIT):         0 
cpu0_DTLB PAGE CROSSINGS (TLB MISS):         0 
cpu0_DTLB AVERAGE MISS LATENCY: 15.3737 cycles
cpu0_STLB TOTAL       ACCESS:    1405513  HIT:    1245598  MISS:     159915  iACCESS:     338601  iHIT:     322958  iMISS:      15643  dACCESS:    1066912  dHIT:     922640  dMISS:     144272  itACCESS:          0  itHIT:          0  itMISS:          0  dtACCESS:          0  dtHIT:          0  dtMISS:          0
cpu0_STLB LOAD         ACCESS:    1405513  HIT:    1245598  MISS:     159915  iACCESS:     338601  iHIT:     322958  iMISS:      15643  dACCESS:    1066912  dHIT:     922640  dMISS:     144272  itACCESS:          0  itHIT:          0  itMISS:          0  dtACCESS:          0  dtHIT:          0  dtMISS:          0
cpu0_STLB RFO          ACCESS:          0  HIT:          0  MISS:          0  iACCESS:          0  iHIT:          0  iMISS:          0  dACCESS:          0  dHIT:          0  dMISS:          0  itACCESS:          0  itHIT:          0  itMISS:          0  dtACCESS:          0  dtHIT:          0  dtMISS:          0
cpu0_STLB PREFETCH     ACCESS:          0  HIT:          0  MISS:          0  iACCESS:          0  iHIT:          0  iMISS:          0  dACCESS:          0  dHIT:          0  dMISS:          0  itACCESS:          0  itHIT:          0  itMISS:          0  dtACCESS:          0  dtHIT:          0  dtMISS:          0
cpu0_STLB WRITE        ACCESS:          0  HIT:          0  MISS:          0  iACCESS:          0  iHIT:          0  iMISS:          0  dACCESS:          0  dHIT:          0  dMISS:          0  itACCESS:          0  itHIT:          0  itMISS:          0  dtACCESS:          0  dtHIT:          0  dtMISS:          0
cpu0_STLB TRANSLATION  ACCESS:          0  HIT:          0  MISS:          0  iACCESS:          0  iHIT:          0  iMISS:          0  dACCESS:          0  dHIT:          0  dMISS:          0  itACCESS:          0  itHIT:          0  itMISS:          0  dtACCESS:          0  dtHIT:          0  dtMISS:          0
cpu0_STLB PREFETCH  REQUESTED:          0  ISSUED:          0  CROSSED:          0  USEFUL:          0  USELESS:          0
cpu0_STLB AVERAGE iMISS LATENCY: 11.5177 cycles
cpu0_STLB AVERAGE dMISS LATENCY: 119.247 cycles
cpu0_STLB AVERAGE itMISS LATENCY: 0 cycles
cpu0_STLB AVERAGE dtMISS LATENCY: 0 cycles
cpu0_STLB PAGE CROSSINGS (TLB HIT):         0 
cpu0_STLB PAGE CROSSINGS (TLB MISS):         0 
cpu0_STLB AVERAGE MISS LATENCY: 130.765 cycles
cpu0_L1D TOTAL       ACCESS:   42360053  HIT:   38492651  MISS:    3867402  iACCESS:          0  iHIT:          0  iMISS:          0  dACCESS:   42135590  dHIT:   38477867  dMISS:    3657723  itACCESS:      19162  itHIT:       1614  itMISS:      17548  dtACCESS:     205301  dtHIT:      13170  dtMISS:     192131
cpu0_L1D LOAD         ACCESS:   19762293  HIT:   18169035  MISS:    1593258  iACCESS:          0  iHIT:          0  iMISS:          0  dACCESS:   19762293  dHIT:   18169035  dMISS:    1593258  itACCESS:          0  itHIT:          0  itMISS:          0  dtACCESS:          0  dtHIT:          0  dtMISS:          0
cpu0_L1D RFO          ACCESS:          0  HIT:          0  MISS:          0  iACCESS:          0  iHIT:          0  iMISS:          0  dACCESS:          0  dHIT:          0  dMISS:          0  itACCESS:          0  itHIT:          0  itMISS:          0  dtACCESS:          0  dtHIT:          0  dtMISS:          0
cpu0_L1D PREFETCH     ACCESS:   12521080  HIT:   11061630  MISS:    1459450  iACCESS:          0  iHIT:          0  iMISS:          0  dACCESS:   12521080  dHIT:   11061630  dMISS:    1459450  itACCESS:          0  itHIT:          0  itMISS:          0  dtACCESS:          0  dtHIT:          0  dtMISS:          0
cpu0_L1D WRITE        ACCESS:    9852217  HIT:    9247202  MISS:     605015  iACCESS:          0  iHIT:          0  iMISS:          0  dACCESS:    9852217  dHIT:    9247202  dMISS:     605015  itACCESS:          0  itHIT:          0  itMISS:          0  dtACCESS:          0  dtHIT:          0  dtMISS:          0
cpu0_L1D TRANSLATION  ACCESS:     224463  HIT:      14784  MISS:     209679  iACCESS:          0  iHIT:          0  iMISS:          0  dACCESS:          0  dHIT:          0  dMISS:          0  itACCESS:      19162  itHIT:       1614  itMISS:      17548  dtACCESS:     205301  dtHIT:      13170  dtMISS:     192131
cpu0_L1D PREFETCH  REQUESTED:   19762293  ISSUED:   17910476  CROSSED:          0  USEFUL:     299344  USELESS:     618389
cpu0_L1D AVERAGE iMISS LATENCY: 0 cycles
cpu0_L1D AVERAGE dMISS LATENCY: 38.534 cycles
cpu0_L1D AVERAGE itMISS LATENCY: 0.435129 cycles
cpu0_L1D AVERAGE dtMISS LATENCY: 4.26593 cycles
cpu0_L1D PAGE CROSSINGS (TLB HIT):         0 
cpu0_L1D PAGE CROSSINGS (TLB MISS):         0 
cpu0_L1D AVERAGE MISS LATENCY: 43.2351 cycles
cpu0_L2C TOTAL       ACCESS:    6404969  HIT:    1837557  MISS:    4567412  iACCESS:    2969056  iHIT:    1037413  iMISS:    1931643  dACCESS:    3235474  dHIT:     700377  dMISS:    2535097  itACCESS:      15914  itHIT:       6209  itMISS:       9705  dtACCESS:     184525  dtHIT:      93558  dtMISS:      90967
cpu0_L2C LOAD         ACCESS:    1548563  HIT:     341871  MISS:    1206692  iACCESS:     707045  iHIT:     211582  iMISS:     495463  dACCESS:     841518  dHIT:     130289  dMISS:     711229  itACCESS:          0  itHIT:          0  itMISS:          0  dtACCESS:          0  dtHIT:          0  dtMISS:          0
cpu0_L2C RFO          ACCESS:     140436  HIT:      23412  MISS:     117024  iACCESS:          0  iHIT:          0  iMISS:          0  dACCESS:     140436  dHIT:      23412  dMISS:     117024  itACCESS:          0  itHIT:          0  itMISS:          0  dtACCESS:          0  dtHIT:          0  dtMISS:          0
cpu0_L2C PREFETCH     ACCESS:    4248281  HIT:    1255407  MISS:    2992874  iACCESS:    2262011  iHIT:     825831  iMISS:    1436180  dACCESS:    1986270  dHIT:     429576  dMISS:    1556694  itACCESS:          0  itHIT:          0  itMISS:          0  dtACCESS:          0  dtHIT:          0  dtMISS:          0
cpu0_L2C WRITE        ACCESS:     267250  HIT:     117100  MISS:     150150  iACCESS:          0  iHIT:          0  iMISS:          0  dACCESS:     267250  dHIT:     117100  dMISS:     150150  itACCESS:          0  itHIT:          0  itMISS:          0  dtACCESS:          0  dtHIT:          0  dtMISS:          0
cpu0_L2C TRANSLATION  ACCESS:     200439  HIT:      99767  MISS:     100672  iACCESS:          0  iHIT:          0  iMISS:          0  dACCESS:          0  dHIT:          0  dMISS:          0  itACCESS:      15914  itHIT:       6209  itMISS:       9705  dtACCESS:     184525  dtHIT:      93558  dtMISS:      90967
cpu0_L2C PREFETCH  REQUESTED:    1301939  ISSUED:    1301939  CROSSED:          0  USEFUL:     357235  USELESS:     335397
cpu0_L2C AVERAGE iMISS LATENCY: 21.6326 cycles
cpu0_L2C AVERAGE dMISS LATENCY: 40.5694 cycles
cpu0_L2C AVERAGE itMISS LATENCY: 0.334842 cycles
cpu0_L2C AVERAGE dtMISS LATENCY: 3.22642 cycles
cpu0_L2C PAGE CROSSINGS (TLB HIT):         0 
cpu0_L2C PAGE CROSSINGS (TLB MISS):         0 
cpu0_L2C AVERAGE MISS LATENCY: 65.7632 cycles
LLC TOTAL       ACCESS:    4489661  HIT:    3149969  MISS:    1339692  iACCESS:    1864476  iHIT:    1438388  iMISS:     426088  dACCESS:    2524513  dHIT:    1689002  dMISS:     835511  itACCESS:       9705  itHIT:       2152  itMISS:       7553  dtACCESS:      90967  dtHIT:      20427  dtMISS:      70540
LLC LOAD         ACCESS:    1203412  HIT:     896401  MISS:     307011  iACCESS:     494172  iHIT:     401813  iMISS:      92359  dACCESS:     709240  dHIT:     494588  dMISS:     214652  itACCESS:          0  itHIT:          0  itMISS:          0  dtACCESS:          0  dtHIT:          0  dtMISS:          0
LLC RFO          ACCESS:     117021  HIT:      68295  MISS:      48726  iACCESS:          0  iHIT:          0  iMISS:          0  dACCESS:     117021  dHIT:      68295  dMISS:      48726  itACCESS:          0  itHIT:          0  itMISS:          0  dtACCESS:          0  dtHIT:          0  dtMISS:          0
LLC PREFETCH     ACCESS:    2853090  HIT:    1949243  MISS:     903847  iACCESS:    1370304  iHIT:    1036575  iMISS:     333729  dACCESS:    1482786  dHIT:     912668  dMISS:     570118  itACCESS:          0  itHIT:          0  itMISS:          0  dtACCESS:          0  dtHIT:          0  dtMISS:          0
LLC WRITE        ACCESS:     215466  HIT:     213451  MISS:       2015  iACCESS:          0  iHIT:          0  iMISS:          0  dACCESS:     215466  dHIT:     213451  dMISS:       2015  itACCESS:          0  itHIT:          0  itMISS:          0  dtACCESS:          0  dtHIT:          0  dtMISS:          0
LLC TRANSLATION  ACCESS:     100672  HIT:      22579  MISS:      78093  iACCESS:          0  iHIT:          0  iMISS:          0  dACCESS:          0  dHIT:          0  dMISS:          0  itACCESS:       9705  itHIT:       2152  itMISS:       7553  dtACCESS:      90967  dtHIT:      20427  dtMISS:      70540
LLC PREFETCH  REQUESTED:          0  ISSUED:          0  CROSSED:          0  USEFUL:          0  USELESS:          0
LLC AVERAGE iMISS LATENCY: 46.7822 cycles
LLC AVERAGE dMISS LATENCY: 105.412 cycles
LLC AVERAGE itMISS LATENCY: 0.998708 cycles
LLC AVERAGE dtMISS LATENCY: 9.66255 cycles
LLC PAGE CROSSINGS (TLB HIT):         0 
LLC PAGE CROSSINGS (TLB MISS):         0 
LLC AVERAGE MISS LATENCY: 162.855 cycles

PageTableWalker TOTAL       ACCESS:      81271  
PageTableWalker AVERAGE LATENCY: 4.29816 cycles
PageTableWalker TOTAL LATENCY: 349315 cycles

DRAM Statistics
Channel 0
 RQ ROW_BUFFER_HIT:     380520
  ROW_BUFFER_MISS:     955139
 AVG DBUS CONGESTED CYCLE:    3.65541
 WQ ROW_BUFFER_HIT:      33355
  ROW_BUFFER_MISS:      36749  FULL:          0

