last_page:0x200000000000000
VMEM_RES_CAP:0x100000
PAGE_SIZE:4096
LOG2_PAGE_SIZE:12
LOG2_PAGE_TABLE_SIZE:9
page_table_levels:5
WARNING: physical memory size is smaller than virtual memory size
FDiP enabled with aggresivity 16

*** ChampSim Multicore Out-of-Order Simulator ***

Warmup Instructions: 50000000
Simulation Instructions: 100000000
Number of CPUs: 1
Small page size: 4096
Large page size: 2097152

CPU 0 Bimodal branch predictor
Basic BTB sets: 1024 ways: 8 indirect buffer size: 4096 RAS size: 64
Instruction page size distrubution: 0
Loading instruction page size distribution from /home/bsc/bsc018186/scratch/itp_asplos25_AE/dump/srv598_ap.pdst
Data page size distrubution: 0
Loading data page size distribution from /home/bsc/bsc018186/scratch/itp_asplos25_AE/dump/srv598_ap.pdst
cpu0_L2C IP-based stride prefetcher
cpu0_L2C is using PTP replacement policy:
	TLB_STRESS_THRESHOLD:0
	PTE_EVICTION_RATIO:0
cpu0_L1D next line prefetcher
cpu0_L1I next line prefetcher
Off-chip DRAM Size: 4 GiB Channels: 1 Width: 64-bit Data Rate: 3200 MT/s
Heartbeat CPU 0 instructions: 10000003 cycles: 2500181 heartbeat IPC: 3.99972 cumulative IPC: 3.99972 (Simulation time: 0 hr 0 min 37 sec) 
Heartbeat CPU 0 instructions: 20000000 cycles: 5000181 heartbeat IPC: 4 cumulative IPC: 3.99986 (Simulation time: 0 hr 1 min 16 sec) 
Heartbeat CPU 0 instructions: 30000000 cycles: 7500181 heartbeat IPC: 4 cumulative IPC: 3.99991 (Simulation time: 0 hr 1 min 57 sec) 
Heartbeat CPU 0 instructions: 40000003 cycles: 10000244 heartbeat IPC: 3.99991 cumulative IPC: 3.99991 (Simulation time: 0 hr 2 min 38 sec) 
Heartbeat CPU 0 instructions: 50000003 cycles: 12500293 heartbeat IPC: 3.99993 cumulative IPC: 3.99991 (Simulation time: 0 hr 3 min 19 sec) 
Warmup finished CPU 0 instructions: 50000003 cycles: 12500294 cumulative IPC: 3.99991 (Simulation time: 0 hr 3 min 19 sec) 

Warmup complete CPU 0 instructions: 50000003 cycles: 12500294 (Simulation time: 0 hr 3 min 19 sec) 

Heartbeat CPU 0 instructions: 60000003 cycles: 27363136 heartbeat IPC: 0.672819 cumulative IPC: 0.672819 (Simulation time: 0 hr 4 min 23 sec) 
Heartbeat CPU 0 instructions: 70000002 cycles: 41976855 heartbeat IPC: 0.684289 cumulative IPC: 0.678506 (Simulation time: 0 hr 5 min 28 sec) 
Heartbeat CPU 0 instructions: 80000004 cycles: 57445893 heartbeat IPC: 0.646453 cumulative IPC: 0.667474 (Simulation time: 0 hr 6 min 34 sec) 
Heartbeat CPU 0 instructions: 90000000 cycles: 71431255 heartbeat IPC: 0.715034 cumulative IPC: 0.678761 (Simulation time: 0 hr 7 min 37 sec) 
Heartbeat CPU 0 instructions: 100000002 cycles: 86579720 heartbeat IPC: 0.660134 cumulative IPC: 0.674952 (Simulation time: 0 hr 8 min 44 sec) 
*** Reached end of trace: /gpfs/projects/bsc18/MN4/bsc18/romol/ChampSim/traces/qualcomm_srv/srv598_ap.champsimtrace.xz
Heartbeat CPU 0 instructions: 110000002 cycles: 101355903 heartbeat IPC: 0.676765 cumulative IPC: 0.675253 (Simulation time: 0 hr 9 min 50 sec) 
Heartbeat CPU 0 instructions: 120000000 cycles: 116443294 heartbeat IPC: 0.662805 cumulative IPC: 0.673446 (Simulation time: 0 hr 10 min 57 sec) 
Heartbeat CPU 0 instructions: 130000002 cycles: 131268918 heartbeat IPC: 0.674509 cumulative IPC: 0.673579 (Simulation time: 0 hr 12 min 3 sec) 
Heartbeat CPU 0 instructions: 140000000 cycles: 145969180 heartbeat IPC: 0.68026 cumulative IPC: 0.674315 (Simulation time: 0 hr 13 min 9 sec) 
Heartbeat CPU 0 instructions: 150000003 cycles: 160330874 heartbeat IPC: 0.696297 cumulative IPC: 0.676451 (Simulation time: 0 hr 14 min 15 sec) 
Simulation finished CPU 0 instructions: 100000000 cycles: 147830581 cumulative IPC: 0.676451 (Simulation time: 0 hr 14 min 15 sec) 

Simulation complete CPU 0 instructions: 100000000 cycles: 147830581 (Simulation time: 0 hr 14 min 15 sec) 


ChampSim completed all CPUs

Saving instructions large page distribution to /home/bsc/bsc018186/scratch/itp_asplos25_AE/dump/srv598_ap.pdst...
Saving data large page distribution to /home/bsc/bsc018186/scratch/itp_asplos25_AE/dump/srv598_ap.pdst...
=== Simulation ===
CPU 0 runs /gpfs/projects/bsc18/MN4/bsc18/romol/ChampSim/traces/qualcomm_srv/srv598_ap.champsimtrace.xz

Region of Interest Statistics

CPU 0 cumulative IPC: 0.676451 instructions: 100000000 cycles: 147830581
CPU 0 Branch Prediction Accuracy: 82.4702% MPKI: 31.394 Average ROB Occupancy at Mispredict: 12.7321
Branch type MPKI
BRANCH_DIRECT_JUMP: 1.06634
BRANCH_INDIRECT: 16.184
BRANCH_CONDITIONAL: 10.3233
BRANCH_DIRECT_CALL: 1.92845
BRANCH_INDIRECT_CALL: 0.514911
BRANCH_RETURN: 1.3772

Instructions large pages: 0
Instructions small pages: 1014
Large page distribution for instructions: 0%

Data large pages: 0
Data small pages: 9552
Large page distribution for data: 0%

cpu0_L1I TOTAL       ACCESS:   35772868  HIT:   27237627  MISS:    8535241  iACCESS:   35772868  iHIT:   27237627  iMISS:    8535241  dACCESS:          0  dHIT:          0  dMISS:          0  itACCESS:          0  itHIT:          0  itMISS:          0  dtACCESS:          0  dtHIT:          0  dtMISS:          0
cpu0_L1I LOAD         ACCESS:   10486953  HIT:    8101132  MISS:    2385821  iACCESS:   10486953  iHIT:    8101132  iMISS:    2385821  dACCESS:          0  dHIT:          0  dMISS:          0  itACCESS:          0  itHIT:          0  itMISS:          0  dtACCESS:          0  dtHIT:          0  dtMISS:          0
cpu0_L1I RFO          ACCESS:          0  HIT:          0  MISS:          0  iACCESS:          0  iHIT:          0  iMISS:          0  dACCESS:          0  dHIT:          0  dMISS:          0  itACCESS:          0  itHIT:          0  itMISS:          0  dtACCESS:          0  dtHIT:          0  dtMISS:          0
cpu0_L1I PREFETCH     ACCESS:   25285915  HIT:   19136495  MISS:    6149420  iACCESS:   25285915  iHIT:   19136495  iMISS:    6149420  dACCESS:          0  dHIT:          0  dMISS:          0  itACCESS:          0  itHIT:          0  itMISS:          0  dtACCESS:          0  dtHIT:          0  dtMISS:          0
cpu0_L1I WRITE        ACCESS:          0  HIT:          0  MISS:          0  iACCESS:          0  iHIT:          0  iMISS:          0  dACCESS:          0  dHIT:          0  dMISS:          0  itACCESS:          0  itHIT:          0  itMISS:          0  dtACCESS:          0  dtHIT:          0  dtMISS:          0
cpu0_L1I TRANSLATION  ACCESS:          0  HIT:          0  MISS:          0  iACCESS:          0  iHIT:          0  iMISS:          0  dACCESS:          0  dHIT:          0  dMISS:          0  itACCESS:          0  itHIT:          0  itMISS:          0  dtACCESS:          0  dtHIT:          0  dtMISS:          0
cpu0_L1I PREFETCH  REQUESTED:   27559281  ISSUED:   27557150  CROSSED:          0  USEFUL:    1950998  USELESS:     627224
cpu0_L1I AVERAGE iMISS LATENCY: 14.3206 cycles
cpu0_L1I AVERAGE dMISS LATENCY: 0 cycles
cpu0_L1I AVERAGE itMISS LATENCY: 0 cycles
cpu0_L1I AVERAGE dtMISS LATENCY: 0 cycles
cpu0_L1I PAGE CROSSINGS (TLB HIT):         0 
cpu0_L1I PAGE CROSSINGS (TLB MISS):         0 
cpu0_L1I AVERAGE MISS LATENCY: 14.3206 cycles
cpu0_ITLB TOTAL       ACCESS:   29552987  HIT:   27623298  MISS:    1929689  iACCESS:   29552987  iHIT:   27623298  iMISS:    1929689  dACCESS:          0  dHIT:          0  dMISS:          0  itACCESS:          0  itHIT:          0  itMISS:          0  dtACCESS:          0  dtHIT:          0  dtMISS:          0
cpu0_ITLB LOAD         ACCESS:   29552987  HIT:   27623298  MISS:    1929689  iACCESS:   29552987  iHIT:   27623298  iMISS:    1929689  dACCESS:          0  dHIT:          0  dMISS:          0  itACCESS:          0  itHIT:          0  itMISS:          0  dtACCESS:          0  dtHIT:          0  dtMISS:          0
cpu0_ITLB RFO          ACCESS:          0  HIT:          0  MISS:          0  iACCESS:          0  iHIT:          0  iMISS:          0  dACCESS:          0  dHIT:          0  dMISS:          0  itACCESS:          0  itHIT:          0  itMISS:          0  dtACCESS:          0  dtHIT:          0  dtMISS:          0
cpu0_ITLB PREFETCH     ACCESS:          0  HIT:          0  MISS:          0  iACCESS:          0  iHIT:          0  iMISS:          0  dACCESS:          0  dHIT:          0  dMISS:          0  itACCESS:          0  itHIT:          0  itMISS:          0  dtACCESS:          0  dtHIT:          0  dtMISS:          0
cpu0_ITLB WRITE        ACCESS:          0  HIT:          0  MISS:          0  iACCESS:          0  iHIT:          0  iMISS:          0  dACCESS:          0  dHIT:          0  dMISS:          0  itACCESS:          0  itHIT:          0  itMISS:          0  dtACCESS:          0  dtHIT:          0  dtMISS:          0
cpu0_ITLB TRANSLATION  ACCESS:          0  HIT:          0  MISS:          0  iACCESS:          0  iHIT:          0  iMISS:          0  dACCESS:          0  dHIT:          0  dMISS:          0  itACCESS:          0  itHIT:          0  itMISS:          0  dtACCESS:          0  dtHIT:          0  dtMISS:          0
cpu0_ITLB PREFETCH  REQUESTED:          0  ISSUED:          0  CROSSED:          0  USEFUL:     318291  USELESS:      63443
cpu0_ITLB AVERAGE iMISS LATENCY: 2.89947 cycles
cpu0_ITLB AVERAGE dMISS LATENCY: 0 cycles
cpu0_ITLB AVERAGE itMISS LATENCY: 0 cycles
cpu0_ITLB AVERAGE dtMISS LATENCY: 0 cycles
cpu0_ITLB PAGE CROSSINGS (TLB HIT):         0 
cpu0_ITLB PAGE CROSSINGS (TLB MISS):         0 
cpu0_ITLB AVERAGE MISS LATENCY: 2.89947 cycles
cpu0_DTLB TOTAL       ACCESS:   27913731  HIT:   25971581  MISS:    1942150  iACCESS:          0  iHIT:          0  iMISS:          0  dACCESS:   27913731  dHIT:   25971581  dMISS:    1942150  itACCESS:          0  itHIT:          0  itMISS:          0  dtACCESS:          0  dtHIT:          0  dtMISS:          0
cpu0_DTLB LOAD         ACCESS:   27913731  HIT:   25971581  MISS:    1942150  iACCESS:          0  iHIT:          0  iMISS:          0  dACCESS:   27913731  dHIT:   25971581  dMISS:    1942150  itACCESS:          0  itHIT:          0  itMISS:          0  dtACCESS:          0  dtHIT:          0  dtMISS:          0
cpu0_DTLB RFO          ACCESS:          0  HIT:          0  MISS:          0  iACCESS:          0  iHIT:          0  iMISS:          0  dACCESS:          0  dHIT:          0  dMISS:          0  itACCESS:          0  itHIT:          0  itMISS:          0  dtACCESS:          0  dtHIT:          0  dtMISS:          0
cpu0_DTLB PREFETCH     ACCESS:          0  HIT:          0  MISS:          0  iACCESS:          0  iHIT:          0  iMISS:          0  dACCESS:          0  dHIT:          0  dMISS:          0  itACCESS:          0  itHIT:          0  itMISS:          0  dtACCESS:          0  dtHIT:          0  dtMISS:          0
cpu0_DTLB WRITE        ACCESS:          0  HIT:          0  MISS:          0  iACCESS:          0  iHIT:          0  iMISS:          0  dACCESS:          0  dHIT:          0  dMISS:          0  itACCESS:          0  itHIT:          0  itMISS:          0  dtACCESS:          0  dtHIT:          0  dtMISS:          0
cpu0_DTLB TRANSLATION  ACCESS:          0  HIT:          0  MISS:          0  iACCESS:          0  iHIT:          0  iMISS:          0  dACCESS:          0  dHIT:          0  dMISS:          0  itACCESS:          0  itHIT:          0  itMISS:          0  dtACCESS:          0  dtHIT:          0  dtMISS:          0
cpu0_DTLB PREFETCH  REQUESTED:          0  ISSUED:          0  CROSSED:          0  USEFUL:          0  USELESS:          0
cpu0_DTLB AVERAGE iMISS LATENCY: 0 cycles
cpu0_DTLB AVERAGE dMISS LATENCY: 9.55425 cycles
cpu0_DTLB AVERAGE itMISS LATENCY: 0 cycles
cpu0_DTLB AVERAGE dtMISS LATENCY: 0 cycles
cpu0_DTLB PAGE CROSSINGS (TLB HIT):         0 
cpu0_DTLB PAGE CROSSINGS (TLB MISS):         0 
cpu0_DTLB AVERAGE MISS LATENCY: 9.55425 cycles
cpu0_STLB TOTAL       ACCESS:    1567473  HIT:    1395468  MISS:     172005  iACCESS:     381748  iHIT:     321541  iMISS:      60207  dACCESS:    1185725  dHIT:    1073927  dMISS:     111798  itACCESS:          0  itHIT:          0  itMISS:          0  dtACCESS:          0  dtHIT:          0  dtMISS:          0
cpu0_STLB LOAD         ACCESS:    1567473  HIT:    1395468  MISS:     172005  iACCESS:     381748  iHIT:     321541  iMISS:      60207  dACCESS:    1185725  dHIT:    1073927  dMISS:     111798  itACCESS:          0  itHIT:          0  itMISS:          0  dtACCESS:          0  dtHIT:          0  dtMISS:          0
cpu0_STLB RFO          ACCESS:          0  HIT:          0  MISS:          0  iACCESS:          0  iHIT:          0  iMISS:          0  dACCESS:          0  dHIT:          0  dMISS:          0  itACCESS:          0  itHIT:          0  itMISS:          0  dtACCESS:          0  dtHIT:          0  dtMISS:          0
cpu0_STLB PREFETCH     ACCESS:          0  HIT:          0  MISS:          0  iACCESS:          0  iHIT:          0  iMISS:          0  dACCESS:          0  dHIT:          0  dMISS:          0  itACCESS:          0  itHIT:          0  itMISS:          0  dtACCESS:          0  dtHIT:          0  dtMISS:          0
cpu0_STLB WRITE        ACCESS:          0  HIT:          0  MISS:          0  iACCESS:          0  iHIT:          0  iMISS:          0  dACCESS:          0  dHIT:          0  dMISS:          0  itACCESS:          0  itHIT:          0  itMISS:          0  dtACCESS:          0  dtHIT:          0  dtMISS:          0
cpu0_STLB TRANSLATION  ACCESS:          0  HIT:          0  MISS:          0  iACCESS:          0  iHIT:          0  iMISS:          0  dACCESS:          0  dHIT:          0  dMISS:          0  itACCESS:          0  itHIT:          0  itMISS:          0  dtACCESS:          0  dtHIT:          0  dtMISS:          0
cpu0_STLB PREFETCH  REQUESTED:          0  ISSUED:          0  CROSSED:          0  USEFUL:          0  USELESS:          0
cpu0_STLB AVERAGE iMISS LATENCY: 15.0001 cycles
cpu0_STLB AVERAGE dMISS LATENCY: 52.8315 cycles
cpu0_STLB AVERAGE itMISS LATENCY: 0 cycles
cpu0_STLB AVERAGE dtMISS LATENCY: 0 cycles
cpu0_STLB PAGE CROSSINGS (TLB HIT):         0 
cpu0_STLB PAGE CROSSINGS (TLB MISS):         0 
cpu0_STLB AVERAGE MISS LATENCY: 67.8316 cycles
cpu0_L1D TOTAL       ACCESS:   41814893  HIT:   38220041  MISS:    3594852  iACCESS:          0  iHIT:          0  iMISS:          0  dACCESS:   41576370  dHIT:   38199781  dMISS:    3376589  itACCESS:      65339  itHIT:       9300  itMISS:      56039  dtACCESS:     173184  dtHIT:      10960  dtMISS:     162224
cpu0_L1D LOAD         ACCESS:   19127282  HIT:   17606187  MISS:    1521095  iACCESS:          0  iHIT:          0  iMISS:          0  dACCESS:   19127282  dHIT:   17606187  dMISS:    1521095  itACCESS:          0  itHIT:          0  itMISS:          0  dtACCESS:          0  dtHIT:          0  dtMISS:          0
cpu0_L1D RFO          ACCESS:          0  HIT:          0  MISS:          0  iACCESS:          0  iHIT:          0  iMISS:          0  dACCESS:          0  dHIT:          0  dMISS:          0  itACCESS:          0  itHIT:          0  itMISS:          0  dtACCESS:          0  dtHIT:          0  dtMISS:          0
cpu0_L1D PREFETCH     ACCESS:   12255617  HIT:   10846928  MISS:    1408689  iACCESS:          0  iHIT:          0  iMISS:          0  dACCESS:   12255617  dHIT:   10846928  dMISS:    1408689  itACCESS:          0  itHIT:          0  itMISS:          0  dtACCESS:          0  dtHIT:          0  dtMISS:          0
cpu0_L1D WRITE        ACCESS:   10193471  HIT:    9746666  MISS:     446805  iACCESS:          0  iHIT:          0  iMISS:          0  dACCESS:   10193471  dHIT:    9746666  dMISS:     446805  itACCESS:          0  itHIT:          0  itMISS:          0  dtACCESS:          0  dtHIT:          0  dtMISS:          0
cpu0_L1D TRANSLATION  ACCESS:     238523  HIT:      20260  MISS:     218263  iACCESS:          0  iHIT:          0  iMISS:          0  dACCESS:          0  dHIT:          0  dMISS:          0  itACCESS:      65339  itHIT:       9300  itMISS:      56039  dtACCESS:     173184  dtHIT:      10960  dtMISS:     162224
cpu0_L1D PREFETCH  REQUESTED:   19127282  ISSUED:   17068104  CROSSED:          0  USEFUL:     309846  USELESS:     709539
cpu0_L1D AVERAGE iMISS LATENCY: 0 cycles
cpu0_L1D AVERAGE dMISS LATENCY: 36.4249 cycles
cpu0_L1D AVERAGE itMISS LATENCY: 0.571328 cycles
cpu0_L1D AVERAGE dtMISS LATENCY: 1.85277 cycles
cpu0_L1D PAGE CROSSINGS (TLB HIT):         0 
cpu0_L1D PAGE CROSSINGS (TLB MISS):         0 
cpu0_L1D AVERAGE MISS LATENCY: 38.849 cycles
cpu0_L2C TOTAL       ACCESS:    7058279  HIT:    1237416  MISS:    5820863  iACCESS:    3315956  iHIT:     703897  iMISS:    2612059  dACCESS:    3538474  dHIT:     377985  dMISS:    3160489  itACCESS:      56039  itHIT:      43015  itMISS:      13024  dtACCESS:     147810  dtHIT:     112519  dtMISS:      35291
cpu0_L2C LOAD         ACCESS:    1710325  HIT:     134598  MISS:    1575727  iACCESS:     776742  iHIT:      98519  iMISS:     678223  dACCESS:     933583  dHIT:      36079  dMISS:     897504  itACCESS:          0  itHIT:          0  itMISS:          0  dtACCESS:          0  dtHIT:          0  dtMISS:          0
cpu0_L2C RFO          ACCESS:     159708  HIT:       7562  MISS:     152146  iACCESS:          0  iHIT:          0  iMISS:          0  dACCESS:     159708  dHIT:       7562  dMISS:     152146  itACCESS:          0  itHIT:          0  itMISS:          0  dtACCESS:          0  dtHIT:          0  dtMISS:          0
cpu0_L2C PREFETCH     ACCESS:    4701312  HIT:     888581  MISS:    3812731  iACCESS:    2539214  iHIT:     605378  iMISS:    1933836  dACCESS:    2162098  dHIT:     283203  dMISS:    1878895  itACCESS:          0  itHIT:          0  itMISS:          0  dtACCESS:          0  dtHIT:          0  dtMISS:          0
cpu0_L2C WRITE        ACCESS:     283085  HIT:      51141  MISS:     231944  iACCESS:          0  iHIT:          0  iMISS:          0  dACCESS:     283085  dHIT:      51141  dMISS:     231944  itACCESS:          0  itHIT:          0  itMISS:          0  dtACCESS:          0  dtHIT:          0  dtMISS:          0
cpu0_L2C TRANSLATION  ACCESS:     203849  HIT:     155534  MISS:      48315  iACCESS:          0  iHIT:          0  iMISS:          0  dACCESS:          0  dHIT:          0  dMISS:          0  itACCESS:      56039  itHIT:      43015  itMISS:      13024  dtACCESS:     147810  dtHIT:     112519  dtMISS:      35291
cpu0_L2C PREFETCH  REQUESTED:    1408647  ISSUED:    1408647  CROSSED:          0  USEFUL:     432723  USELESS:     397890
cpu0_L2C AVERAGE iMISS LATENCY: 15.6798 cycles
cpu0_L2C AVERAGE dMISS LATENCY: 26.5705 cycles
cpu0_L2C AVERAGE itMISS LATENCY: 0.263735 cycles
cpu0_L2C AVERAGE dtMISS LATENCY: 0.908381 cycles
cpu0_L2C PAGE CROSSINGS (TLB HIT):         0 
cpu0_L2C PAGE CROSSINGS (TLB MISS):         0 
cpu0_L2C AVERAGE MISS LATENCY: 43.4223 cycles
LLC TOTAL       ACCESS:    5724539  HIT:    4804062  MISS:     920477  iACCESS:    2551172  iHIT:    2266200  iMISS:     284972  dACCESS:    3125052  dHIT:    2522468  dMISS:     602584  itACCESS:      13024  itHIT:       5570  itMISS:       7454  dtACCESS:      35291  dtHIT:       9824  dtMISS:      25467
LLC LOAD         ACCESS:    1573765  HIT:    1363025  MISS:     210740  iACCESS:     676768  iHIT:     615632  iMISS:      61136  dACCESS:     896997  dHIT:     747393  dMISS:     149604  itACCESS:          0  itHIT:          0  itMISS:          0  dtACCESS:          0  dtHIT:          0  dtMISS:          0
LLC RFO          ACCESS:     152135  HIT:     107949  MISS:      44186  iACCESS:          0  iHIT:          0  iMISS:          0  dACCESS:     152135  dHIT:     107949  dMISS:      44186  itACCESS:          0  itHIT:          0  itMISS:          0  dtACCESS:          0  dtHIT:          0  dtMISS:          0
LLC PREFETCH     ACCESS:    3692265  HIT:    3059635  MISS:     632630  iACCESS:    1874404  iHIT:    1650568  iMISS:     223836  dACCESS:    1817861  dHIT:    1409067  dMISS:     408794  itACCESS:          0  itHIT:          0  itMISS:          0  dtACCESS:          0  dtHIT:          0  dtMISS:          0
LLC WRITE        ACCESS:     258059  HIT:     258059  MISS:          0  iACCESS:          0  iHIT:          0  iMISS:          0  dACCESS:     258059  dHIT:     258059  dMISS:          0  itACCESS:          0  itHIT:          0  itMISS:          0  dtACCESS:          0  dtHIT:          0  dtMISS:          0
LLC TRANSLATION  ACCESS:      48315  HIT:      15394  MISS:      32921  iACCESS:          0  iHIT:          0  iMISS:          0  dACCESS:          0  dHIT:          0  dMISS:          0  itACCESS:      13024  itHIT:       5570  itMISS:       7454  dtACCESS:      35291  dtHIT:       9824  dtMISS:      25467
LLC PREFETCH  REQUESTED:          0  ISSUED:          0  CROSSED:          0  USEFUL:          0  USELESS:          0
LLC AVERAGE iMISS LATENCY: 45.6519 cycles
LLC AVERAGE dMISS LATENCY: 107.969 cycles
LLC AVERAGE itMISS LATENCY: 1.39132 cycles
LLC AVERAGE dtMISS LATENCY: 4.99092 cycles
LLC PAGE CROSSINGS (TLB HIT):         0 
LLC PAGE CROSSINGS (TLB MISS):         0 
LLC AVERAGE MISS LATENCY: 160.003 cycles

PageTableWalker TOTAL       ACCESS:      86776  
PageTableWalker AVERAGE LATENCY: 4.2021 cycles
PageTableWalker TOTAL LATENCY: 364641 cycles

DRAM Statistics
Channel 0
 RQ ROW_BUFFER_HIT:     261333
  ROW_BUFFER_MISS:     659031
 AVG DBUS CONGESTED CYCLE:     3.6446
 WQ ROW_BUFFER_HIT:      23537
  ROW_BUFFER_MISS:      30770  FULL:          0

