last_page:0x200000000000000
VMEM_RES_CAP:0x100000
PAGE_SIZE:4096
LOG2_PAGE_SIZE:12
LOG2_PAGE_TABLE_SIZE:9
page_table_levels:5
WARNING: physical memory size is smaller than virtual memory size
FDiP enabled with aggresivity 16

*** ChampSim Multicore Out-of-Order Simulator ***

Warmup Instructions: 50000000
Simulation Instructions: 100000000
Number of CPUs: 1
Small page size: 4096
Large page size: 2097152

CPU 0 Bimodal branch predictor
Basic BTB sets: 1024 ways: 8 indirect buffer size: 4096 RAS size: 64
Instruction page size distrubution: 0
Loading instruction page size distribution from /home/bsc/bsc018186/scratch/itp_asplos25_AE/dump/srv540_ap.pdst
Data page size distrubution: 0
Loading data page size distribution from /home/bsc/bsc018186/scratch/itp_asplos25_AE/dump/srv540_ap.pdst
cpu0_L2C IP-based stride prefetcher
cpu0_L1D next line prefetcher
cpu0_STLB using iTP with max lru@8
cpu0_STLB using iTP with instr@0 and data@2
Init sat counter with 3 bits (max:50).
cpu0_L1I next line prefetcher
Off-chip DRAM Size: 4 GiB Channels: 1 Width: 64-bit Data Rate: 3200 MT/s
Heartbeat CPU 0 instructions: 10000001 cycles: 2500151 heartbeat IPC: 3.99976 cumulative IPC: 3.99976 (Simulation time: 0 hr 0 min 37 sec) 
Heartbeat CPU 0 instructions: 20000000 cycles: 5000281 heartbeat IPC: 3.9998 cumulative IPC: 3.99978 (Simulation time: 0 hr 1 min 17 sec) 
Heartbeat CPU 0 instructions: 30000000 cycles: 7500282 heartbeat IPC: 4 cumulative IPC: 3.99985 (Simulation time: 0 hr 1 min 57 sec) 
Heartbeat CPU 0 instructions: 40000003 cycles: 10000319 heartbeat IPC: 3.99995 cumulative IPC: 3.99988 (Simulation time: 0 hr 2 min 37 sec) 
Heartbeat CPU 0 instructions: 50000000 cycles: 12500319 heartbeat IPC: 4 cumulative IPC: 3.9999 (Simulation time: 0 hr 3 min 18 sec) 
Warmup finished CPU 0 instructions: 50000000 cycles: 12500320 cumulative IPC: 3.9999 (Simulation time: 0 hr 3 min 18 sec) 

Warmup complete CPU 0 instructions: 50000000 cycles: 12500320 (Simulation time: 0 hr 3 min 18 sec) 

Heartbeat CPU 0 instructions: 60000001 cycles: 30229693 heartbeat IPC: 0.564036 cumulative IPC: 0.564036 (Simulation time: 0 hr 4 min 28 sec) 
Heartbeat CPU 0 instructions: 70000002 cycles: 49307270 heartbeat IPC: 0.524176 cumulative IPC: 0.543376 (Simulation time: 0 hr 5 min 41 sec) 
Heartbeat CPU 0 instructions: 80000000 cycles: 67255682 heartbeat IPC: 0.557153 cumulative IPC: 0.547892 (Simulation time: 0 hr 6 min 52 sec) 
Heartbeat CPU 0 instructions: 90000001 cycles: 86777785 heartbeat IPC: 0.51224 cumulative IPC: 0.538522 (Simulation time: 0 hr 8 min 5 sec) 
Heartbeat CPU 0 instructions: 100000000 cycles: 105629066 heartbeat IPC: 0.530468 cumulative IPC: 0.536892 (Simulation time: 0 hr 9 min 18 sec) 
*** Reached end of trace: /gpfs/projects/bsc18/MN4/bsc18/romol/ChampSim/traces/qualcomm_srv/srv540_ap.champsimtrace.xz
Heartbeat CPU 0 instructions: 110000004 cycles: 125093624 heartbeat IPC: 0.513755 cumulative IPC: 0.532892 (Simulation time: 0 hr 10 min 31 sec) 
Heartbeat CPU 0 instructions: 120000002 cycles: 144207309 heartbeat IPC: 0.523186 cumulative IPC: 0.531483 (Simulation time: 0 hr 11 min 44 sec) 
Heartbeat CPU 0 instructions: 130000001 cycles: 162611493 heartbeat IPC: 0.543355 cumulative IPC: 0.532939 (Simulation time: 0 hr 12 min 56 sec) 
Heartbeat CPU 0 instructions: 140000001 cycles: 180944121 heartbeat IPC: 0.545476 cumulative IPC: 0.534303 (Simulation time: 0 hr 14 min 7 sec) 
Heartbeat CPU 0 instructions: 150000001 cycles: 200876279 heartbeat IPC: 0.501702 cumulative IPC: 0.530854 (Simulation time: 0 hr 15 min 21 sec) 
Simulation finished CPU 0 instructions: 100000001 cycles: 188375960 cumulative IPC: 0.530854 (Simulation time: 0 hr 15 min 21 sec) 

Simulation complete CPU 0 instructions: 100000001 cycles: 188375960 (Simulation time: 0 hr 15 min 21 sec) 


ChampSim completed all CPUs

Saving instructions large page distribution to /home/bsc/bsc018186/scratch/itp_asplos25_AE/dump/srv540_ap.pdst...
Saving data large page distribution to /home/bsc/bsc018186/scratch/itp_asplos25_AE/dump/srv540_ap.pdst...
=== Simulation ===
CPU 0 runs /gpfs/projects/bsc18/MN4/bsc18/romol/ChampSim/traces/qualcomm_srv/srv540_ap.champsimtrace.xz

Region of Interest Statistics

CPU 0 cumulative IPC: 0.530854 instructions: 100000001 cycles: 188375960
CPU 0 Branch Prediction Accuracy: 79.5913% MPKI: 36.6946 Average ROB Occupancy at Mispredict: 10.28
Branch type MPKI
BRANCH_DIRECT_JUMP: 1.38632
BRANCH_INDIRECT: 18.7731
BRANCH_CONDITIONAL: 11.5695
BRANCH_DIRECT_CALL: 2.50793
BRANCH_INDIRECT_CALL: 0.65848
BRANCH_RETURN: 1.7994

Instructions large pages: 0
Instructions small pages: 1131
Large page distribution for instructions: 0%

Data large pages: 0
Data small pages: 4967
Large page distribution for data: 0%

cpu0_L1I TOTAL       ACCESS:   36092161  HIT:   27790097  MISS:    8302064  iACCESS:   36092161  iHIT:   27790097  iMISS:    8302064  dACCESS:          0  dHIT:          0  dMISS:          0  itACCESS:          0  itHIT:          0  itMISS:          0  dtACCESS:          0  dtHIT:          0  dtMISS:          0
cpu0_L1I LOAD         ACCESS:   10479343  HIT:    8214461  MISS:    2264882  iACCESS:   10479343  iHIT:    8214461  iMISS:    2264882  dACCESS:          0  dHIT:          0  dMISS:          0  itACCESS:          0  itHIT:          0  itMISS:          0  dtACCESS:          0  dtHIT:          0  dtMISS:          0
cpu0_L1I RFO          ACCESS:          0  HIT:          0  MISS:          0  iACCESS:          0  iHIT:          0  iMISS:          0  dACCESS:          0  dHIT:          0  dMISS:          0  itACCESS:          0  itHIT:          0  itMISS:          0  dtACCESS:          0  dtHIT:          0  dtMISS:          0
cpu0_L1I PREFETCH     ACCESS:   25612818  HIT:   19575636  MISS:    6037182  iACCESS:   25612818  iHIT:   19575636  iMISS:    6037182  dACCESS:          0  dHIT:          0  dMISS:          0  itACCESS:          0  itHIT:          0  itMISS:          0  dtACCESS:          0  dtHIT:          0  dtMISS:          0
cpu0_L1I WRITE        ACCESS:          0  HIT:          0  MISS:          0  iACCESS:          0  iHIT:          0  iMISS:          0  dACCESS:          0  dHIT:          0  dMISS:          0  itACCESS:          0  itHIT:          0  itMISS:          0  dtACCESS:          0  dtHIT:          0  dtMISS:          0
cpu0_L1I TRANSLATION  ACCESS:          0  HIT:          0  MISS:          0  iACCESS:          0  iHIT:          0  iMISS:          0  dACCESS:          0  dHIT:          0  dMISS:          0  itACCESS:          0  itHIT:          0  itMISS:          0  dtACCESS:          0  dtHIT:          0  dtMISS:          0
cpu0_L1I PREFETCH  REQUESTED:   27958821  ISSUED:   27957916  CROSSED:          0  USEFUL:    2011143  USELESS:     655578
cpu0_L1I AVERAGE iMISS LATENCY: 18.8612 cycles
cpu0_L1I AVERAGE dMISS LATENCY: 0 cycles
cpu0_L1I AVERAGE itMISS LATENCY: 0 cycles
cpu0_L1I AVERAGE dtMISS LATENCY: 0 cycles
cpu0_L1I PAGE CROSSINGS (TLB HIT):         0 
cpu0_L1I PAGE CROSSINGS (TLB MISS):         0 
cpu0_L1I AVERAGE MISS LATENCY: 18.8612 cycles
cpu0_ITLB TOTAL       ACCESS:   30187102  HIT:   28272947  MISS:    1914155  iACCESS:   30187102  iHIT:   28272947  iMISS:    1914155  dACCESS:          0  dHIT:          0  dMISS:          0  itACCESS:          0  itHIT:          0  itMISS:          0  dtACCESS:          0  dtHIT:          0  dtMISS:          0
cpu0_ITLB LOAD         ACCESS:   30187102  HIT:   28272947  MISS:    1914155  iACCESS:   30187102  iHIT:   28272947  iMISS:    1914155  dACCESS:          0  dHIT:          0  dMISS:          0  itACCESS:          0  itHIT:          0  itMISS:          0  dtACCESS:          0  dtHIT:          0  dtMISS:          0
cpu0_ITLB RFO          ACCESS:          0  HIT:          0  MISS:          0  iACCESS:          0  iHIT:          0  iMISS:          0  dACCESS:          0  dHIT:          0  dMISS:          0  itACCESS:          0  itHIT:          0  itMISS:          0  dtACCESS:          0  dtHIT:          0  dtMISS:          0
cpu0_ITLB PREFETCH     ACCESS:          0  HIT:          0  MISS:          0  iACCESS:          0  iHIT:          0  iMISS:          0  dACCESS:          0  dHIT:          0  dMISS:          0  itACCESS:          0  itHIT:          0  itMISS:          0  dtACCESS:          0  dtHIT:          0  dtMISS:          0
cpu0_ITLB WRITE        ACCESS:          0  HIT:          0  MISS:          0  iACCESS:          0  iHIT:          0  iMISS:          0  dACCESS:          0  dHIT:          0  dMISS:          0  itACCESS:          0  itHIT:          0  itMISS:          0  dtACCESS:          0  dtHIT:          0  dtMISS:          0
cpu0_ITLB TRANSLATION  ACCESS:          0  HIT:          0  MISS:          0  iACCESS:          0  iHIT:          0  iMISS:          0  dACCESS:          0  dHIT:          0  dMISS:          0  itACCESS:          0  itHIT:          0  itMISS:          0  dtACCESS:          0  dtHIT:          0  dtMISS:          0
cpu0_ITLB PREFETCH  REQUESTED:          0  ISSUED:          0  CROSSED:          0  USEFUL:     329567  USELESS:      64164
cpu0_ITLB AVERAGE iMISS LATENCY: 3.08149 cycles
cpu0_ITLB AVERAGE dMISS LATENCY: 0 cycles
cpu0_ITLB AVERAGE itMISS LATENCY: 0 cycles
cpu0_ITLB AVERAGE dtMISS LATENCY: 0 cycles
cpu0_ITLB PAGE CROSSINGS (TLB HIT):         0 
cpu0_ITLB PAGE CROSSINGS (TLB MISS):         0 
cpu0_ITLB AVERAGE MISS LATENCY: 3.08149 cycles
cpu0_DTLB TOTAL       ACCESS:   28107298  HIT:   26077225  MISS:    2030073  iACCESS:          0  iHIT:          0  iMISS:          0  dACCESS:   28107298  dHIT:   26077225  dMISS:    2030073  itACCESS:          0  itHIT:          0  itMISS:          0  dtACCESS:          0  dtHIT:          0  dtMISS:          0
cpu0_DTLB LOAD         ACCESS:   28107298  HIT:   26077225  MISS:    2030073  iACCESS:          0  iHIT:          0  iMISS:          0  dACCESS:   28107298  dHIT:   26077225  dMISS:    2030073  itACCESS:          0  itHIT:          0  itMISS:          0  dtACCESS:          0  dtHIT:          0  dtMISS:          0
cpu0_DTLB RFO          ACCESS:          0  HIT:          0  MISS:          0  iACCESS:          0  iHIT:          0  iMISS:          0  dACCESS:          0  dHIT:          0  dMISS:          0  itACCESS:          0  itHIT:          0  itMISS:          0  dtACCESS:          0  dtHIT:          0  dtMISS:          0
cpu0_DTLB PREFETCH     ACCESS:          0  HIT:          0  MISS:          0  iACCESS:          0  iHIT:          0  iMISS:          0  dACCESS:          0  dHIT:          0  dMISS:          0  itACCESS:          0  itHIT:          0  itMISS:          0  dtACCESS:          0  dtHIT:          0  dtMISS:          0
cpu0_DTLB WRITE        ACCESS:          0  HIT:          0  MISS:          0  iACCESS:          0  iHIT:          0  iMISS:          0  dACCESS:          0  dHIT:          0  dMISS:          0  itACCESS:          0  itHIT:          0  itMISS:          0  dtACCESS:          0  dtHIT:          0  dtMISS:          0
cpu0_DTLB TRANSLATION  ACCESS:          0  HIT:          0  MISS:          0  iACCESS:          0  iHIT:          0  iMISS:          0  dACCESS:          0  dHIT:          0  dMISS:          0  itACCESS:          0  itHIT:          0  itMISS:          0  dtACCESS:          0  dtHIT:          0  dtMISS:          0
cpu0_DTLB PREFETCH  REQUESTED:          0  ISSUED:          0  CROSSED:          0  USEFUL:          0  USELESS:          0
cpu0_DTLB AVERAGE iMISS LATENCY: 0 cycles
cpu0_DTLB AVERAGE dMISS LATENCY: 13.8602 cycles
cpu0_DTLB AVERAGE itMISS LATENCY: 0 cycles
cpu0_DTLB AVERAGE dtMISS LATENCY: 0 cycles
cpu0_DTLB PAGE CROSSINGS (TLB HIT):         0 
cpu0_DTLB PAGE CROSSINGS (TLB MISS):         0 
cpu0_DTLB AVERAGE MISS LATENCY: 13.8602 cycles
cpu0_STLB TOTAL       ACCESS:    1626066  HIT:    1399000  MISS:     227066  iACCESS:     393736  iHIT:     363915  iMISS:      29821  dACCESS:    1232330  dHIT:    1035085  dMISS:     197245  itACCESS:          0  itHIT:          0  itMISS:          0  dtACCESS:          0  dtHIT:          0  dtMISS:          0
cpu0_STLB LOAD         ACCESS:    1626066  HIT:    1399000  MISS:     227066  iACCESS:     393736  iHIT:     363915  iMISS:      29821  dACCESS:    1232330  dHIT:    1035085  dMISS:     197245  itACCESS:          0  itHIT:          0  itMISS:          0  dtACCESS:          0  dtHIT:          0  dtMISS:          0
cpu0_STLB RFO          ACCESS:          0  HIT:          0  MISS:          0  iACCESS:          0  iHIT:          0  iMISS:          0  dACCESS:          0  dHIT:          0  dMISS:          0  itACCESS:          0  itHIT:          0  itMISS:          0  dtACCESS:          0  dtHIT:          0  dtMISS:          0
cpu0_STLB PREFETCH     ACCESS:          0  HIT:          0  MISS:          0  iACCESS:          0  iHIT:          0  iMISS:          0  dACCESS:          0  dHIT:          0  dMISS:          0  itACCESS:          0  itHIT:          0  itMISS:          0  dtACCESS:          0  dtHIT:          0  dtMISS:          0
cpu0_STLB WRITE        ACCESS:          0  HIT:          0  MISS:          0  iACCESS:          0  iHIT:          0  iMISS:          0  dACCESS:          0  dHIT:          0  dMISS:          0  itACCESS:          0  itHIT:          0  itMISS:          0  dtACCESS:          0  dtHIT:          0  dtMISS:          0
cpu0_STLB TRANSLATION  ACCESS:          0  HIT:          0  MISS:          0  iACCESS:          0  iHIT:          0  iMISS:          0  dACCESS:          0  dHIT:          0  dMISS:          0  itACCESS:          0  itHIT:          0  itMISS:          0  dtACCESS:          0  dtHIT:          0  dtMISS:          0
cpu0_STLB PREFETCH  REQUESTED:          0  ISSUED:          0  CROSSED:          0  USEFUL:          0  USELESS:          0
cpu0_STLB AVERAGE iMISS LATENCY: 12.4442 cycles
cpu0_STLB AVERAGE dMISS LATENCY: 80.3481 cycles
cpu0_STLB AVERAGE itMISS LATENCY: 0 cycles
cpu0_STLB AVERAGE dtMISS LATENCY: 0 cycles
cpu0_STLB PAGE CROSSINGS (TLB HIT):         0 
cpu0_STLB PAGE CROSSINGS (TLB MISS):         0 
cpu0_STLB AVERAGE MISS LATENCY: 92.7922 cycles
cpu0_L1D TOTAL       ACCESS:   43022582  HIT:   38715423  MISS:    4307159  iACCESS:          0  iHIT:          0  iMISS:          0  dACCESS:   42718832  dHIT:   38696646  dMISS:    4022186  itACCESS:      33421  itHIT:       3037  itMISS:      30384  dtACCESS:     270329  dtHIT:      15740  dtMISS:     254589
cpu0_L1D LOAD         ACCESS:   19580194  HIT:   17730001  MISS:    1850193  iACCESS:          0  iHIT:          0  iMISS:          0  dACCESS:   19580194  dHIT:   17730001  dMISS:    1850193  itACCESS:          0  itHIT:          0  itMISS:          0  dtACCESS:          0  dtHIT:          0  dtMISS:          0
cpu0_L1D RFO          ACCESS:          0  HIT:          0  MISS:          0  iACCESS:          0  iHIT:          0  iMISS:          0  dACCESS:          0  dHIT:          0  dMISS:          0  itACCESS:          0  itHIT:          0  itMISS:          0  dtACCESS:          0  dtHIT:          0  dtMISS:          0
cpu0_L1D PREFETCH     ACCESS:   13041739  HIT:   11318174  MISS:    1723565  iACCESS:          0  iHIT:          0  iMISS:          0  dACCESS:   13041739  dHIT:   11318174  dMISS:    1723565  itACCESS:          0  itHIT:          0  itMISS:          0  dtACCESS:          0  dtHIT:          0  dtMISS:          0
cpu0_L1D WRITE        ACCESS:   10096899  HIT:    9648471  MISS:     448428  iACCESS:          0  iHIT:          0  iMISS:          0  dACCESS:   10096899  dHIT:    9648471  dMISS:     448428  itACCESS:          0  itHIT:          0  itMISS:          0  dtACCESS:          0  dtHIT:          0  dtMISS:          0
cpu0_L1D TRANSLATION  ACCESS:     303750  HIT:      18777  MISS:     284973  iACCESS:          0  iHIT:          0  iMISS:          0  dACCESS:          0  dHIT:          0  dMISS:          0  itACCESS:      33421  itHIT:       3037  itMISS:      30384  dtACCESS:     270329  dtHIT:      15740  dtMISS:     254589
cpu0_L1D PREFETCH  REQUESTED:   19580194  ISSUED:   17576335  CROSSED:          0  USEFUL:     321135  USELESS:     736257
cpu0_L1D AVERAGE iMISS LATENCY: 0 cycles
cpu0_L1D AVERAGE dMISS LATENCY: 39.6997 cycles
cpu0_L1D AVERAGE itMISS LATENCY: 0.585883 cycles
cpu0_L1D AVERAGE dtMISS LATENCY: 3.64302 cycles
cpu0_L1D PAGE CROSSINGS (TLB HIT):         0 
cpu0_L1D PAGE CROSSINGS (TLB MISS):         0 
cpu0_L1D AVERAGE MISS LATENCY: 43.9286 cycles
cpu0_L2C TOTAL       ACCESS:    7444780  HIT:    1662325  MISS:    5782455  iACCESS:    3390067  iHIT:     857157  iMISS:    2532910  dACCESS:    3775066  dHIT:     652844  dMISS:    3122222  itACCESS:      30384  itHIT:      15054  itMISS:      15330  dtACCESS:     249263  dtHIT:     137270  dtMISS:     111993
cpu0_L2C LOAD         ACCESS:    1760320  HIT:     269407  MISS:    1490913  iACCESS:     761008  iHIT:     140871  iMISS:     620137  dACCESS:     999312  dHIT:     128536  dMISS:     870776  itACCESS:          0  itHIT:          0  itMISS:          0  dtACCESS:          0  dtHIT:          0  dtMISS:          0
cpu0_L2C RFO          ACCESS:     162790  HIT:      42851  MISS:     119939  iACCESS:          0  iHIT:          0  iMISS:          0  dACCESS:     162790  dHIT:      42851  dMISS:     119939  itACCESS:          0  itHIT:          0  itMISS:          0  dtACCESS:          0  dtHIT:          0  dtMISS:          0
cpu0_L2C PREFETCH     ACCESS:    4958976  HIT:    1071971  MISS:    3887005  iACCESS:    2629059  iHIT:     716286  iMISS:    1912773  dACCESS:    2329917  dHIT:     355685  dMISS:    1974232  itACCESS:          0  itHIT:          0  itMISS:          0  dtACCESS:          0  dtHIT:          0  dtMISS:          0
cpu0_L2C WRITE        ACCESS:     283047  HIT:     125772  MISS:     157275  iACCESS:          0  iHIT:          0  iMISS:          0  dACCESS:     283047  dHIT:     125772  dMISS:     157275  itACCESS:          0  itHIT:          0  itMISS:          0  dtACCESS:          0  dtHIT:          0  dtMISS:          0
cpu0_L2C TRANSLATION  ACCESS:     279647  HIT:     152324  MISS:     127323  iACCESS:          0  iHIT:          0  iMISS:          0  dACCESS:          0  dHIT:          0  dMISS:          0  itACCESS:      30384  itHIT:      15054  itMISS:      15330  dtACCESS:     249263  dtHIT:     137270  dtMISS:     111993
cpu0_L2C PREFETCH  REQUESTED:    1541724  ISSUED:    1541722  CROSSED:          0  USEFUL:     437831  USELESS:     435937
cpu0_L2C AVERAGE iMISS LATENCY: 21.8129 cycles
cpu0_L2C AVERAGE dMISS LATENCY: 36.9049 cycles
cpu0_L2C AVERAGE itMISS LATENCY: 0.386336 cycles
cpu0_L2C AVERAGE dtMISS LATENCY: 2.30445 cycles
cpu0_L2C PAGE CROSSINGS (TLB HIT):         0 
cpu0_L2C PAGE CROSSINGS (TLB MISS):         0 
cpu0_L2C AVERAGE MISS LATENCY: 61.4085 cycles
LLC TOTAL       ACCESS:    5598638  HIT:    4011461  MISS:    1587177  iACCESS:    2454889  iHIT:    1919021  iMISS:     535868  dACCESS:    3016426  dHIT:    2037516  dMISS:     978910  itACCESS:      15330  itHIT:       4141  itMISS:      11189  dtACCESS:     111993  dtHIT:      50783  dtMISS:      61210
LLC LOAD         ACCESS:    1485005  HIT:    1123293  MISS:     361712  iACCESS:     618604  iHIT:     505984  iMISS:     112620  dACCESS:     866401  dHIT:     617309  dMISS:     249092  itACCESS:          0  itHIT:          0  itMISS:          0  dtACCESS:          0  dtHIT:          0  dtMISS:          0
LLC RFO          ACCESS:     119939  HIT:      65793  MISS:      54146  iACCESS:          0  iHIT:          0  iMISS:          0  dACCESS:     119939  dHIT:      65793  dMISS:      54146  itACCESS:          0  itHIT:          0  itMISS:          0  dtACCESS:          0  dtHIT:          0  dtMISS:          0
LLC PREFETCH     ACCESS:    3708877  HIT:    2621840  MISS:    1087037  iACCESS:    1836285  iHIT:    1413037  iMISS:     423248  dACCESS:    1872592  dHIT:    1208803  dMISS:     663789  itACCESS:          0  itHIT:          0  itMISS:          0  dtACCESS:          0  dtHIT:          0  dtMISS:          0
LLC WRITE        ACCESS:     157494  HIT:     145611  MISS:      11883  iACCESS:          0  iHIT:          0  iMISS:          0  dACCESS:     157494  dHIT:     145611  dMISS:      11883  itACCESS:          0  itHIT:          0  itMISS:          0  dtACCESS:          0  dtHIT:          0  dtMISS:          0
LLC TRANSLATION  ACCESS:     127323  HIT:      54924  MISS:      72399  iACCESS:          0  iHIT:          0  iMISS:          0  dACCESS:          0  dHIT:          0  dMISS:          0  itACCESS:      15330  itHIT:       4141  itMISS:      11189  dtACCESS:     111993  dtHIT:      50783  dtMISS:      61210
LLC PREFETCH  REQUESTED:          0  ISSUED:          0  CROSSED:          0  USEFUL:          0  USELESS:          0
LLC AVERAGE iMISS LATENCY: 49.5288 cycles
LLC AVERAGE dMISS LATENCY: 100.589 cycles
LLC AVERAGE itMISS LATENCY: 1.21747 cycles
LLC AVERAGE dtMISS LATENCY: 7.01753 cycles
LLC PAGE CROSSINGS (TLB HIT):         0 
LLC PAGE CROSSINGS (TLB MISS):         0 
LLC AVERAGE MISS LATENCY: 158.353 cycles

PageTableWalker TOTAL       ACCESS:     107858  
PageTableWalker AVERAGE LATENCY: 4.41572 cycles
PageTableWalker TOTAL LATENCY: 476270 cycles

DRAM Statistics
Channel 0
 RQ ROW_BUFFER_HIT:     460736
  ROW_BUFFER_MISS:    1098976
 AVG DBUS CONGESTED CYCLE:     3.6362
 WQ ROW_BUFFER_HIT:      31400
  ROW_BUFFER_MISS:      25859  FULL:          0

