last_page:0x200000000000000
VMEM_RES_CAP:0x100000
PAGE_SIZE:4096
LOG2_PAGE_SIZE:12
LOG2_PAGE_TABLE_SIZE:9
page_table_levels:5
WARNING: physical memory size is smaller than virtual memory size
FDiP enabled with aggresivity 16

*** ChampSim Multicore Out-of-Order Simulator ***

Warmup Instructions: 50000000
Simulation Instructions: 100000000
Number of CPUs: 1
Small page size: 4096
Large page size: 2097152

CPU 0 Bimodal branch predictor
Basic BTB sets: 1024 ways: 8 indirect buffer size: 4096 RAS size: 64
Instruction page size distrubution: 0
Loading instruction page size distribution from /home/bsc/bsc018186/scratch/itp_asplos25_AE/dump/srv596_ap.pdst
Data page size distrubution: 0
Loading data page size distribution from /home/bsc/bsc018186/scratch/itp_asplos25_AE/dump/srv596_ap.pdst
cpu0_L2C IP-based stride prefetcher
cpu0_L1D next line prefetcher
CHiRPing...
cpu0_L1I next line prefetcher
Off-chip DRAM Size: 4 GiB Channels: 1 Width: 64-bit Data Rate: 3200 MT/s
Heartbeat CPU 0 instructions: 10000003 cycles: 2500289 heartbeat IPC: 3.99954 cumulative IPC: 3.99954 (Simulation time: 0 hr 0 min 39 sec) 
Heartbeat CPU 0 instructions: 20000002 cycles: 5002068 heartbeat IPC: 3.99716 cumulative IPC: 3.99835 (Simulation time: 0 hr 1 min 20 sec) 
Heartbeat CPU 0 instructions: 30000002 cycles: 7502099 heartbeat IPC: 3.99996 cumulative IPC: 3.99889 (Simulation time: 0 hr 2 min 1 sec) 
Heartbeat CPU 0 instructions: 40000000 cycles: 10002161 heartbeat IPC: 3.99991 cumulative IPC: 3.99914 (Simulation time: 0 hr 2 min 42 sec) 
Heartbeat CPU 0 instructions: 50000000 cycles: 12502163 heartbeat IPC: 4 cumulative IPC: 3.99931 (Simulation time: 0 hr 3 min 23 sec) 
Warmup finished CPU 0 instructions: 50000000 cycles: 12502164 cumulative IPC: 3.99931 (Simulation time: 0 hr 3 min 23 sec) 

Warmup complete CPU 0 instructions: 50000000 cycles: 12502164 (Simulation time: 0 hr 3 min 23 sec) 

Heartbeat CPU 0 instructions: 60000000 cycles: 28239804 heartbeat IPC: 0.63542 cumulative IPC: 0.63542 (Simulation time: 0 hr 4 min 30 sec) 
Heartbeat CPU 0 instructions: 70000001 cycles: 43386906 heartbeat IPC: 0.660193 cumulative IPC: 0.647569 (Simulation time: 0 hr 5 min 36 sec) 
Heartbeat CPU 0 instructions: 80000003 cycles: 58291598 heartbeat IPC: 0.67093 cumulative IPC: 0.655174 (Simulation time: 0 hr 6 min 41 sec) 
Heartbeat CPU 0 instructions: 90000000 cycles: 73768088 heartbeat IPC: 0.646142 cumulative IPC: 0.652892 (Simulation time: 0 hr 7 min 48 sec) 
Heartbeat CPU 0 instructions: 100000001 cycles: 88723443 heartbeat IPC: 0.668657 cumulative IPC: 0.655985 (Simulation time: 0 hr 8 min 53 sec) 
*** Reached end of trace: /gpfs/projects/bsc18/MN4/bsc18/romol/ChampSim/traces/qualcomm_srv/srv596_ap.champsimtrace.xz
Heartbeat CPU 0 instructions: 110000000 cycles: 104362812 heartbeat IPC: 0.639412 cumulative IPC: 0.653164 (Simulation time: 0 hr 10 min 0 sec) 
Heartbeat CPU 0 instructions: 120000000 cycles: 118875112 heartbeat IPC: 0.689071 cumulative IPC: 0.658063 (Simulation time: 0 hr 11 min 5 sec) 
Heartbeat CPU 0 instructions: 130000000 cycles: 134434712 heartbeat IPC: 0.642691 cumulative IPC: 0.656101 (Simulation time: 0 hr 12 min 12 sec) 
Heartbeat CPU 0 instructions: 140000003 cycles: 149644877 heartbeat IPC: 0.657456 cumulative IPC: 0.656251 (Simulation time: 0 hr 13 min 18 sec) 
Heartbeat CPU 0 instructions: 150000002 cycles: 164274716 heartbeat IPC: 0.683535 cumulative IPC: 0.658881 (Simulation time: 0 hr 14 min 23 sec) 
Simulation finished CPU 0 instructions: 100000002 cycles: 151772553 cumulative IPC: 0.658881 (Simulation time: 0 hr 14 min 23 sec) 

Simulation complete CPU 0 instructions: 100000002 cycles: 151772553 (Simulation time: 0 hr 14 min 23 sec) 


ChampSim completed all CPUs

Saving instructions large page distribution to /home/bsc/bsc018186/scratch/itp_asplos25_AE/dump/srv596_ap.pdst...
Saving data large page distribution to /home/bsc/bsc018186/scratch/itp_asplos25_AE/dump/srv596_ap.pdst...
=== Simulation ===
CPU 0 runs /gpfs/projects/bsc18/MN4/bsc18/romol/ChampSim/traces/qualcomm_srv/srv596_ap.champsimtrace.xz

Region of Interest Statistics

CPU 0 cumulative IPC: 0.658881 instructions: 100000002 cycles: 151772553
CPU 0 Branch Prediction Accuracy: 83.2564% MPKI: 30.0697 Average ROB Occupancy at Mispredict: 12.846
Branch type MPKI
BRANCH_DIRECT_JUMP: 0.97979
BRANCH_INDIRECT: 15.5639
BRANCH_CONDITIONAL: 9.80265
BRANCH_DIRECT_CALL: 1.86504
BRANCH_INDIRECT_CALL: 0.50743
BRANCH_RETURN: 1.35089

Instructions large pages: 0
Instructions small pages: 936
Large page distribution for instructions: 0%

Data large pages: 0
Data small pages: 9216
Large page distribution for data: 0%

cpu0_L1I TOTAL       ACCESS:   34544780  HIT:   26644105  MISS:    7900675  iACCESS:   34544780  iHIT:   26644105  iMISS:    7900675  dACCESS:          0  dHIT:          0  dMISS:          0  itACCESS:          0  itHIT:          0  itMISS:          0  dtACCESS:          0  dtHIT:          0  dtMISS:          0
cpu0_L1I LOAD         ACCESS:   10062964  HIT:    7843540  MISS:    2219424  iACCESS:   10062964  iHIT:    7843540  iMISS:    2219424  dACCESS:          0  dHIT:          0  dMISS:          0  itACCESS:          0  itHIT:          0  itMISS:          0  dtACCESS:          0  dtHIT:          0  dtMISS:          0
cpu0_L1I RFO          ACCESS:          0  HIT:          0  MISS:          0  iACCESS:          0  iHIT:          0  iMISS:          0  dACCESS:          0  dHIT:          0  dMISS:          0  itACCESS:          0  itHIT:          0  itMISS:          0  dtACCESS:          0  dtHIT:          0  dtMISS:          0
cpu0_L1I PREFETCH     ACCESS:   24481816  HIT:   18800565  MISS:    5681251  iACCESS:   24481816  iHIT:   18800565  iMISS:    5681251  dACCESS:          0  dHIT:          0  dMISS:          0  itACCESS:          0  itHIT:          0  itMISS:          0  dtACCESS:          0  dtHIT:          0  dtMISS:          0
cpu0_L1I WRITE        ACCESS:          0  HIT:          0  MISS:          0  iACCESS:          0  iHIT:          0  iMISS:          0  dACCESS:          0  dHIT:          0  dMISS:          0  itACCESS:          0  itHIT:          0  itMISS:          0  dtACCESS:          0  dtHIT:          0  dtMISS:          0
cpu0_L1I TRANSLATION  ACCESS:          0  HIT:          0  MISS:          0  iACCESS:          0  iHIT:          0  iMISS:          0  dACCESS:          0  dHIT:          0  dMISS:          0  itACCESS:          0  itHIT:          0  itMISS:          0  dtACCESS:          0  dtHIT:          0  dtMISS:          0
cpu0_L1I PREFETCH  REQUESTED:   26965321  ISSUED:   26965321  CROSSED:          0  USEFUL:    1928737  USELESS:     636328
cpu0_L1I AVERAGE iMISS LATENCY: 12.6262 cycles
cpu0_L1I AVERAGE dMISS LATENCY: 0 cycles
cpu0_L1I AVERAGE itMISS LATENCY: 0 cycles
cpu0_L1I AVERAGE dtMISS LATENCY: 0 cycles
cpu0_L1I PAGE CROSSINGS (TLB HIT):         0 
cpu0_L1I PAGE CROSSINGS (TLB MISS):         0 
cpu0_L1I AVERAGE MISS LATENCY: 12.6262 cycles
cpu0_ITLB TOTAL       ACCESS:   28901763  HIT:   26895773  MISS:    2005990  iACCESS:   28901763  iHIT:   26895773  iMISS:    2005990  dACCESS:          0  dHIT:          0  dMISS:          0  itACCESS:          0  itHIT:          0  itMISS:          0  dtACCESS:          0  dtHIT:          0  dtMISS:          0
cpu0_ITLB LOAD         ACCESS:   28901763  HIT:   26895773  MISS:    2005990  iACCESS:   28901763  iHIT:   26895773  iMISS:    2005990  dACCESS:          0  dHIT:          0  dMISS:          0  itACCESS:          0  itHIT:          0  itMISS:          0  dtACCESS:          0  dtHIT:          0  dtMISS:          0
cpu0_ITLB RFO          ACCESS:          0  HIT:          0  MISS:          0  iACCESS:          0  iHIT:          0  iMISS:          0  dACCESS:          0  dHIT:          0  dMISS:          0  itACCESS:          0  itHIT:          0  itMISS:          0  dtACCESS:          0  dtHIT:          0  dtMISS:          0
cpu0_ITLB PREFETCH     ACCESS:          0  HIT:          0  MISS:          0  iACCESS:          0  iHIT:          0  iMISS:          0  dACCESS:          0  dHIT:          0  dMISS:          0  itACCESS:          0  itHIT:          0  itMISS:          0  dtACCESS:          0  dtHIT:          0  dtMISS:          0
cpu0_ITLB WRITE        ACCESS:          0  HIT:          0  MISS:          0  iACCESS:          0  iHIT:          0  iMISS:          0  dACCESS:          0  dHIT:          0  dMISS:          0  itACCESS:          0  itHIT:          0  itMISS:          0  dtACCESS:          0  dtHIT:          0  dtMISS:          0
cpu0_ITLB TRANSLATION  ACCESS:          0  HIT:          0  MISS:          0  iACCESS:          0  iHIT:          0  iMISS:          0  dACCESS:          0  dHIT:          0  dMISS:          0  itACCESS:          0  itHIT:          0  itMISS:          0  dtACCESS:          0  dtHIT:          0  dtMISS:          0
cpu0_ITLB PREFETCH  REQUESTED:          0  ISSUED:          0  CROSSED:          0  USEFUL:     325561  USELESS:      62698
cpu0_ITLB AVERAGE iMISS LATENCY: 4.97007 cycles
cpu0_ITLB AVERAGE dMISS LATENCY: 0 cycles
cpu0_ITLB AVERAGE itMISS LATENCY: 0 cycles
cpu0_ITLB AVERAGE dtMISS LATENCY: 0 cycles
cpu0_ITLB PAGE CROSSINGS (TLB HIT):         0 
cpu0_ITLB PAGE CROSSINGS (TLB MISS):         0 
cpu0_ITLB AVERAGE MISS LATENCY: 4.97007 cycles
cpu0_DTLB TOTAL       ACCESS:   27702501  HIT:   25651841  MISS:    2050660  iACCESS:          0  iHIT:          0  iMISS:          0  dACCESS:   27702501  dHIT:   25651841  dMISS:    2050660  itACCESS:          0  itHIT:          0  itMISS:          0  dtACCESS:          0  dtHIT:          0  dtMISS:          0
cpu0_DTLB LOAD         ACCESS:   27702501  HIT:   25651841  MISS:    2050660  iACCESS:          0  iHIT:          0  iMISS:          0  dACCESS:   27702501  dHIT:   25651841  dMISS:    2050660  itACCESS:          0  itHIT:          0  itMISS:          0  dtACCESS:          0  dtHIT:          0  dtMISS:          0
cpu0_DTLB RFO          ACCESS:          0  HIT:          0  MISS:          0  iACCESS:          0  iHIT:          0  iMISS:          0  dACCESS:          0  dHIT:          0  dMISS:          0  itACCESS:          0  itHIT:          0  itMISS:          0  dtACCESS:          0  dtHIT:          0  dtMISS:          0
cpu0_DTLB PREFETCH     ACCESS:          0  HIT:          0  MISS:          0  iACCESS:          0  iHIT:          0  iMISS:          0  dACCESS:          0  dHIT:          0  dMISS:          0  itACCESS:          0  itHIT:          0  itMISS:          0  dtACCESS:          0  dtHIT:          0  dtMISS:          0
cpu0_DTLB WRITE        ACCESS:          0  HIT:          0  MISS:          0  iACCESS:          0  iHIT:          0  iMISS:          0  dACCESS:          0  dHIT:          0  dMISS:          0  itACCESS:          0  itHIT:          0  itMISS:          0  dtACCESS:          0  dtHIT:          0  dtMISS:          0
cpu0_DTLB TRANSLATION  ACCESS:          0  HIT:          0  MISS:          0  iACCESS:          0  iHIT:          0  iMISS:          0  dACCESS:          0  dHIT:          0  dMISS:          0  itACCESS:          0  itHIT:          0  itMISS:          0  dtACCESS:          0  dtHIT:          0  dtMISS:          0
cpu0_DTLB PREFETCH  REQUESTED:          0  ISSUED:          0  CROSSED:          0  USEFUL:          0  USELESS:          0
cpu0_DTLB AVERAGE iMISS LATENCY: 0 cycles
cpu0_DTLB AVERAGE dMISS LATENCY: 14.5444 cycles
cpu0_DTLB AVERAGE itMISS LATENCY: 0 cycles
cpu0_DTLB AVERAGE dtMISS LATENCY: 0 cycles
cpu0_DTLB PAGE CROSSINGS (TLB HIT):         0 
cpu0_DTLB PAGE CROSSINGS (TLB MISS):         0 
cpu0_DTLB AVERAGE MISS LATENCY: 14.5444 cycles
cpu0_STLB TOTAL       ACCESS:    1637114  HIT:    1471581  MISS:     165533  iACCESS:     388259  iHIT:     330034  iMISS:      58225  dACCESS:    1248855  dHIT:    1141547  dMISS:     107308  itACCESS:          0  itHIT:          0  itMISS:          0  dtACCESS:          0  dtHIT:          0  dtMISS:          0
cpu0_STLB LOAD         ACCESS:    1637114  HIT:    1471581  MISS:     165533  iACCESS:     388259  iHIT:     330034  iMISS:      58225  dACCESS:    1248855  dHIT:    1141547  dMISS:     107308  itACCESS:          0  itHIT:          0  itMISS:          0  dtACCESS:          0  dtHIT:          0  dtMISS:          0
cpu0_STLB RFO          ACCESS:          0  HIT:          0  MISS:          0  iACCESS:          0  iHIT:          0  iMISS:          0  dACCESS:          0  dHIT:          0  dMISS:          0  itACCESS:          0  itHIT:          0  itMISS:          0  dtACCESS:          0  dtHIT:          0  dtMISS:          0
cpu0_STLB PREFETCH     ACCESS:          0  HIT:          0  MISS:          0  iACCESS:          0  iHIT:          0  iMISS:          0  dACCESS:          0  dHIT:          0  dMISS:          0  itACCESS:          0  itHIT:          0  itMISS:          0  dtACCESS:          0  dtHIT:          0  dtMISS:          0
cpu0_STLB WRITE        ACCESS:          0  HIT:          0  MISS:          0  iACCESS:          0  iHIT:          0  iMISS:          0  dACCESS:          0  dHIT:          0  dMISS:          0  itACCESS:          0  itHIT:          0  itMISS:          0  dtACCESS:          0  dtHIT:          0  dtMISS:          0
cpu0_STLB TRANSLATION  ACCESS:          0  HIT:          0  MISS:          0  iACCESS:          0  iHIT:          0  iMISS:          0  dACCESS:          0  dHIT:          0  dMISS:          0  itACCESS:          0  itHIT:          0  itMISS:          0  dtACCESS:          0  dtHIT:          0  dtMISS:          0
cpu0_STLB PREFETCH  REQUESTED:          0  ISSUED:          0  CROSSED:          0  USEFUL:          0  USELESS:          0
cpu0_STLB AVERAGE iMISS LATENCY: 41.6956 cycles
cpu0_STLB AVERAGE dMISS LATENCY: 120.042 cycles
cpu0_STLB AVERAGE itMISS LATENCY: 0 cycles
cpu0_STLB AVERAGE dtMISS LATENCY: 0 cycles
cpu0_STLB PAGE CROSSINGS (TLB HIT):         0 
cpu0_STLB PAGE CROSSINGS (TLB MISS):         0 
cpu0_STLB AVERAGE MISS LATENCY: 161.738 cycles
cpu0_L1D TOTAL       ACCESS:   41509979  HIT:   37922766  MISS:    3587213  iACCESS:          0  iHIT:          0  iMISS:          0  dACCESS:   41281072  dHIT:   37902843  dMISS:    3378229  itACCESS:      63019  itHIT:       9125  itMISS:      53894  dtACCESS:     165888  dtHIT:      10798  dtMISS:     155090
cpu0_L1D LOAD         ACCESS:   18936752  HIT:   17390290  MISS:    1546462  iACCESS:          0  iHIT:          0  iMISS:          0  dACCESS:   18936752  dHIT:   17390290  dMISS:    1546462  itACCESS:          0  itHIT:          0  itMISS:          0  dtACCESS:          0  dtHIT:          0  dtMISS:          0
cpu0_L1D RFO          ACCESS:          0  HIT:          0  MISS:          0  iACCESS:          0  iHIT:          0  iMISS:          0  dACCESS:          0  dHIT:          0  dMISS:          0  itACCESS:          0  itHIT:          0  itMISS:          0  dtACCESS:          0  dtHIT:          0  dtMISS:          0
cpu0_L1D PREFETCH     ACCESS:   12178853  HIT:   10788263  MISS:    1390590  iACCESS:          0  iHIT:          0  iMISS:          0  dACCESS:   12178853  dHIT:   10788263  dMISS:    1390590  itACCESS:          0  itHIT:          0  itMISS:          0  dtACCESS:          0  dtHIT:          0  dtMISS:          0
cpu0_L1D WRITE        ACCESS:   10165467  HIT:    9724290  MISS:     441177  iACCESS:          0  iHIT:          0  iMISS:          0  dACCESS:   10165467  dHIT:    9724290  dMISS:     441177  itACCESS:          0  itHIT:          0  itMISS:          0  dtACCESS:          0  dtHIT:          0  dtMISS:          0
cpu0_L1D TRANSLATION  ACCESS:     228907  HIT:      19923  MISS:     208984  iACCESS:          0  iHIT:          0  iMISS:          0  dACCESS:          0  dHIT:          0  dMISS:          0  itACCESS:      63019  itHIT:       9125  itMISS:      53894  dtACCESS:     165888  dtHIT:      10798  dtMISS:     155090
cpu0_L1D PREFETCH  REQUESTED:   18936752  ISSUED:   16958287  CROSSED:          0  USEFUL:     308823  USELESS:     705945
cpu0_L1D AVERAGE iMISS LATENCY: 0 cycles
cpu0_L1D AVERAGE dMISS LATENCY: 31.9089 cycles
cpu0_L1D AVERAGE itMISS LATENCY: 1.78526 cycles
cpu0_L1D AVERAGE dtMISS LATENCY: 4.90559 cycles
cpu0_L1D PAGE CROSSINGS (TLB HIT):         0 
cpu0_L1D PAGE CROSSINGS (TLB MISS):         0 
cpu0_L1D AVERAGE MISS LATENCY: 38.5997 cycles
cpu0_L2C TOTAL       ACCESS:    7020271  HIT:    4075568  MISS:    2944703  iACCESS:    3324821  iHIT:    2230401  iMISS:    1094420  dACCESS:    3500194  dHIT:    1818842  dMISS:    1681352  itACCESS:      53894  itHIT:       9571  itMISS:      44323  dtACCESS:     141362  dtHIT:      16754  dtMISS:     124608
cpu0_L2C LOAD         ACCESS:    1740861  HIT:    1044308  MISS:     696553  iACCESS:     800453  iHIT:     564408  iMISS:     236045  dACCESS:     940408  dHIT:     479900  dMISS:     460508  itACCESS:          0  itHIT:          0  itMISS:          0  dtACCESS:          0  dtHIT:          0  dtMISS:          0
cpu0_L2C RFO          ACCESS:     156294  HIT:      69577  MISS:      86717  iACCESS:          0  iHIT:          0  iMISS:          0  dACCESS:     156294  dHIT:      69577  dMISS:      86717  itACCESS:          0  itHIT:          0  itMISS:          0  dtACCESS:          0  dtHIT:          0  dtMISS:          0
cpu0_L2C PREFETCH     ACCESS:    4642259  HIT:    2652064  MISS:    1990195  iACCESS:    2524368  iHIT:    1665993  iMISS:     858375  dACCESS:    2117891  dHIT:     986071  dMISS:    1131820  itACCESS:          0  itHIT:          0  itMISS:          0  dtACCESS:          0  dtHIT:          0  dtMISS:          0
cpu0_L2C WRITE        ACCESS:     285601  HIT:     283294  MISS:       2307  iACCESS:          0  iHIT:          0  iMISS:          0  dACCESS:     285601  dHIT:     283294  dMISS:       2307  itACCESS:          0  itHIT:          0  itMISS:          0  dtACCESS:          0  dtHIT:          0  dtMISS:          0
cpu0_L2C TRANSLATION  ACCESS:     195256  HIT:      26325  MISS:     168931  iACCESS:          0  iHIT:          0  iMISS:          0  dACCESS:          0  dHIT:          0  dMISS:          0  itACCESS:      53894  itHIT:       9571  itMISS:      44323  dtACCESS:     141362  dtHIT:      16754  dtMISS:     124608
cpu0_L2C PREFETCH  REQUESTED:    1386754  ISSUED:    1386668  CROSSED:          0  USEFUL:     316420  USELESS:     233761
cpu0_L2C AVERAGE iMISS LATENCY: 23.651 cycles
cpu0_L2C AVERAGE dMISS LATENCY: 45.0488 cycles
cpu0_L2C AVERAGE itMISS LATENCY: 1.99453 cycles
cpu0_L2C AVERAGE dtMISS LATENCY: 5.49777 cycles
cpu0_L2C PAGE CROSSINGS (TLB HIT):         0 
cpu0_L2C PAGE CROSSINGS (TLB MISS):         0 
cpu0_L2C AVERAGE MISS LATENCY: 76.1921 cycles
LLC TOTAL       ACCESS:    2976365  HIT:    1914623  MISS:    1061742  iACCESS:    1040480  iHIT:     708594  iMISS:     331886  dACCESS:    1766954  dHIT:    1141713  dMISS:     625241  itACCESS:      44323  itHIT:      15231  itMISS:      29092  dtACCESS:     124608  dtHIT:      49085  dtMISS:      75523
LLC LOAD         ACCESS:     694366  HIT:     462268  MISS:     232098  iACCESS:     234774  iHIT:     163298  iMISS:      71476  dACCESS:     459592  dHIT:     298970  dMISS:     160622  itACCESS:          0  itHIT:          0  itMISS:          0  dtACCESS:          0  dtHIT:          0  dtMISS:          0
LLC RFO          ACCESS:      86716  HIT:      46655  MISS:      40061  iACCESS:          0  iHIT:          0  iMISS:          0  dACCESS:      86716  dHIT:      46655  dMISS:      40061  itACCESS:          0  itHIT:          0  itMISS:          0  dtACCESS:          0  dtHIT:          0  dtMISS:          0
LLC PREFETCH     ACCESS:    1885741  HIT:    1206731  MISS:     679010  iACCESS:     805706  iHIT:     545296  iMISS:     260410  dACCESS:    1080035  dHIT:     661435  dMISS:     418600  itACCESS:          0  itHIT:          0  itMISS:          0  dtACCESS:          0  dtHIT:          0  dtMISS:          0
LLC WRITE        ACCESS:     140611  HIT:     134653  MISS:       5958  iACCESS:          0  iHIT:          0  iMISS:          0  dACCESS:     140611  dHIT:     134653  dMISS:       5958  itACCESS:          0  itHIT:          0  itMISS:          0  dtACCESS:          0  dtHIT:          0  dtMISS:          0
LLC TRANSLATION  ACCESS:     168931  HIT:      64316  MISS:     104615  iACCESS:          0  iHIT:          0  iMISS:          0  dACCESS:          0  dHIT:          0  dMISS:          0  itACCESS:      44323  itHIT:      15231  itMISS:      29092  dtACCESS:     124608  dtHIT:      49085  dtMISS:      75523
LLC PREFETCH  REQUESTED:          0  ISSUED:          0  CROSSED:          0  USEFUL:          0  USELESS:          0
LLC AVERAGE iMISS LATENCY: 46.5448 cycles
LLC AVERAGE dMISS LATENCY: 95.3461 cycles
LLC AVERAGE itMISS LATENCY: 4.71315 cycles
LLC AVERAGE dtMISS LATENCY: 12.9529 cycles
LLC PAGE CROSSINGS (TLB HIT):         0 
LLC PAGE CROSSINGS (TLB MISS):         0 
LLC AVERAGE MISS LATENCY: 159.557 cycles

PageTableWalker TOTAL       ACCESS:      83037  
PageTableWalker AVERAGE LATENCY: 5.1818 cycles
PageTableWalker TOTAL LATENCY: 430281 cycles

DRAM Statistics
Channel 0
 RQ ROW_BUFFER_HIT:     269983
  ROW_BUFFER_MISS:     785207
 AVG DBUS CONGESTED CYCLE:    3.61505
 WQ ROW_BUFFER_HIT:      21965
  ROW_BUFFER_MISS:      23055  FULL:          0

