last_page:0x200000000000000
VMEM_RES_CAP:0x100000
PAGE_SIZE:4096
LOG2_PAGE_SIZE:12
LOG2_PAGE_TABLE_SIZE:9
page_table_levels:5
WARNING: physical memory size is smaller than virtual memory size
FDiP enabled with aggresivity 16

*** ChampSim Multicore Out-of-Order Simulator ***

Warmup Instructions: 50000000
Simulation Instructions: 100000000
Number of CPUs: 1
Small page size: 4096
Large page size: 2097152

CPU 0 Bimodal branch predictor
Basic BTB sets: 1024 ways: 8 indirect buffer size: 4096 RAS size: 64
Instruction page size distrubution: 0
Loading instruction page size distribution from /home/bsc/bsc018186/scratch/itp_asplos25_AE/dump/srv598_ap.pdst
Data page size distrubution: 0
Loading data page size distribution from /home/bsc/bsc018186/scratch/itp_asplos25_AE/dump/srv598_ap.pdst
cpu0_L2C IP-based stride prefetcher
cpu0_L2C is using xPTP/LRU
	TLB_LOWER_STRESS_THRESHOLD:1
	TLB_UPPER_STRESS_THRESHOLD:9
	MIN_EVICTION_POSITION:4
cpu0_L1D next line prefetcher
cpu0_STLB using iTP with max lru@8
cpu0_STLB using iTP with instr@0 and data@2
Init sat counter with 3 bits (max:50).
cpu0_L1I next line prefetcher
Off-chip DRAM Size: 4 GiB Channels: 1 Width: 64-bit Data Rate: 3200 MT/s
Heartbeat CPU 0 instructions: 10000002 cycles: 2500170 heartbeat IPC: 3.99973 cumulative IPC: 3.99973 (Simulation time: 0 hr 0 min 42 sec) 
Heartbeat CPU 0 instructions: 20000002 cycles: 5000170 heartbeat IPC: 4 cumulative IPC: 3.99987 (Simulation time: 0 hr 1 min 26 sec) 
Heartbeat CPU 0 instructions: 30000002 cycles: 7500170 heartbeat IPC: 4 cumulative IPC: 3.99991 (Simulation time: 0 hr 2 min 6 sec) 
Heartbeat CPU 0 instructions: 40000002 cycles: 10000194 heartbeat IPC: 3.99997 cumulative IPC: 3.99993 (Simulation time: 0 hr 2 min 50 sec) 
Heartbeat CPU 0 instructions: 50000003 cycles: 12500271 heartbeat IPC: 3.99988 cumulative IPC: 3.99992 (Simulation time: 0 hr 3 min 35 sec) 
Warmup finished CPU 0 instructions: 50000003 cycles: 12500272 cumulative IPC: 3.99992 (Simulation time: 0 hr 3 min 35 sec) 

Warmup complete CPU 0 instructions: 50000003 cycles: 12500272 (Simulation time: 0 hr 3 min 35 sec) 

Heartbeat CPU 0 instructions: 60000003 cycles: 25862376 heartbeat IPC: 0.748386 cumulative IPC: 0.748386 (Simulation time: 0 hr 4 min 43 sec) 
Heartbeat CPU 0 instructions: 70000002 cycles: 38886883 heartbeat IPC: 0.767784 cumulative IPC: 0.757961 (Simulation time: 0 hr 5 min 49 sec) 
Heartbeat CPU 0 instructions: 80000004 cycles: 53005814 heartbeat IPC: 0.70827 cumulative IPC: 0.74064 (Simulation time: 0 hr 6 min 56 sec) 
Heartbeat CPU 0 instructions: 90000000 cycles: 65446408 heartbeat IPC: 0.80382 cumulative IPC: 0.755485 (Simulation time: 0 hr 8 min 3 sec) 
Heartbeat CPU 0 instructions: 100000002 cycles: 79188525 heartbeat IPC: 0.727691 cumulative IPC: 0.749758 (Simulation time: 0 hr 9 min 12 sec) 
*** Reached end of trace: /gpfs/projects/bsc18/MN4/bsc18/romol/ChampSim/traces/qualcomm_srv/srv598_ap.champsimtrace.xz
Heartbeat CPU 0 instructions: 110000002 cycles: 92511693 heartbeat IPC: 0.750573 cumulative IPC: 0.749893 (Simulation time: 0 hr 10 min 18 sec) 
Heartbeat CPU 0 instructions: 120000000 cycles: 106221327 heartbeat IPC: 0.729414 cumulative IPC: 0.746898 (Simulation time: 0 hr 11 min 26 sec) 
Heartbeat CPU 0 instructions: 130000002 cycles: 119452546 heartbeat IPC: 0.755789 cumulative IPC: 0.747998 (Simulation time: 0 hr 12 min 35 sec) 
Heartbeat CPU 0 instructions: 140000000 cycles: 132539250 heartbeat IPC: 0.764135 cumulative IPC: 0.749757 (Simulation time: 0 hr 13 min 43 sec) 
Heartbeat CPU 0 instructions: 150000003 cycles: 145342654 heartbeat IPC: 0.781043 cumulative IPC: 0.752772 (Simulation time: 0 hr 14 min 47 sec) 
Simulation finished CPU 0 instructions: 100000000 cycles: 132842383 cumulative IPC: 0.752772 (Simulation time: 0 hr 14 min 47 sec) 

Simulation complete CPU 0 instructions: 100000000 cycles: 132842383 (Simulation time: 0 hr 14 min 47 sec) 


ChampSim completed all CPUs

Saving instructions large page distribution to /home/bsc/bsc018186/scratch/itp_asplos25_AE/dump/srv598_ap.pdst...
Saving data large page distribution to /home/bsc/bsc018186/scratch/itp_asplos25_AE/dump/srv598_ap.pdst...
=== Simulation ===
CPU 0 runs /gpfs/projects/bsc18/MN4/bsc18/romol/ChampSim/traces/qualcomm_srv/srv598_ap.champsimtrace.xz

Region of Interest Statistics

CPU 0 cumulative IPC: 0.752772 instructions: 100000000 cycles: 132842383
CPU 0 Branch Prediction Accuracy: 82.4702% MPKI: 31.394 Average ROB Occupancy at Mispredict: 12.9403
Branch type MPKI
BRANCH_DIRECT_JUMP: 1.06634
BRANCH_INDIRECT: 16.184
BRANCH_CONDITIONAL: 10.3233
BRANCH_DIRECT_CALL: 1.92845
BRANCH_INDIRECT_CALL: 0.514911
BRANCH_RETURN: 1.3772

Instructions large pages: 0
Instructions small pages: 1014
Large page distribution for instructions: 0%

Data large pages: 0
Data small pages: 9552
Large page distribution for data: 0%

cpu0_L1I TOTAL       ACCESS:   35422458  HIT:   27339716  MISS:    8082742  iACCESS:   35422458  iHIT:   27339716  iMISS:    8082742  dACCESS:          0  dHIT:          0  dMISS:          0  itACCESS:          0  itHIT:          0  itMISS:          0  dtACCESS:          0  dtHIT:          0  dtMISS:          0
cpu0_L1I LOAD         ACCESS:   10393182  HIT:    8134869  MISS:    2258313  iACCESS:   10393182  iHIT:    8134869  iMISS:    2258313  dACCESS:          0  dHIT:          0  dMISS:          0  itACCESS:          0  itHIT:          0  itMISS:          0  dtACCESS:          0  dtHIT:          0  dtMISS:          0
cpu0_L1I RFO          ACCESS:          0  HIT:          0  MISS:          0  iACCESS:          0  iHIT:          0  iMISS:          0  dACCESS:          0  dHIT:          0  dMISS:          0  itACCESS:          0  itHIT:          0  itMISS:          0  dtACCESS:          0  dtHIT:          0  dtMISS:          0
cpu0_L1I PREFETCH     ACCESS:   25029276  HIT:   19204847  MISS:    5824429  iACCESS:   25029276  iHIT:   19204847  iMISS:    5824429  dACCESS:          0  dHIT:          0  dMISS:          0  itACCESS:          0  itHIT:          0  itMISS:          0  dtACCESS:          0  dtHIT:          0  dtMISS:          0
cpu0_L1I WRITE        ACCESS:          0  HIT:          0  MISS:          0  iACCESS:          0  iHIT:          0  iMISS:          0  dACCESS:          0  dHIT:          0  dMISS:          0  itACCESS:          0  itHIT:          0  itMISS:          0  dtACCESS:          0  dtHIT:          0  dtMISS:          0
cpu0_L1I TRANSLATION  ACCESS:          0  HIT:          0  MISS:          0  iACCESS:          0  iHIT:          0  iMISS:          0  dACCESS:          0  dHIT:          0  dMISS:          0  itACCESS:          0  itHIT:          0  itMISS:          0  dtACCESS:          0  dtHIT:          0  dtMISS:          0
cpu0_L1I PREFETCH  REQUESTED:   27471821  ISSUED:   27471727  CROSSED:          0  USEFUL:    1949663  USELESS:     627246
cpu0_L1I AVERAGE iMISS LATENCY: 11.2187 cycles
cpu0_L1I AVERAGE dMISS LATENCY: 0 cycles
cpu0_L1I AVERAGE itMISS LATENCY: 0 cycles
cpu0_L1I AVERAGE dtMISS LATENCY: 0 cycles
cpu0_L1I PAGE CROSSINGS (TLB HIT):         0 
cpu0_L1I PAGE CROSSINGS (TLB MISS):         0 
cpu0_L1I AVERAGE MISS LATENCY: 11.2187 cycles
cpu0_ITLB TOTAL       ACCESS:   29480155  HIT:   27554886  MISS:    1925269  iACCESS:   29480155  iHIT:   27554886  iMISS:    1925269  dACCESS:          0  dHIT:          0  dMISS:          0  itACCESS:          0  itHIT:          0  itMISS:          0  dtACCESS:          0  dtHIT:          0  dtMISS:          0
cpu0_ITLB LOAD         ACCESS:   29480155  HIT:   27554886  MISS:    1925269  iACCESS:   29480155  iHIT:   27554886  iMISS:    1925269  dACCESS:          0  dHIT:          0  dMISS:          0  itACCESS:          0  itHIT:          0  itMISS:          0  dtACCESS:          0  dtHIT:          0  dtMISS:          0
cpu0_ITLB RFO          ACCESS:          0  HIT:          0  MISS:          0  iACCESS:          0  iHIT:          0  iMISS:          0  dACCESS:          0  dHIT:          0  dMISS:          0  itACCESS:          0  itHIT:          0  itMISS:          0  dtACCESS:          0  dtHIT:          0  dtMISS:          0
cpu0_ITLB PREFETCH     ACCESS:          0  HIT:          0  MISS:          0  iACCESS:          0  iHIT:          0  iMISS:          0  dACCESS:          0  dHIT:          0  dMISS:          0  itACCESS:          0  itHIT:          0  itMISS:          0  dtACCESS:          0  dtHIT:          0  dtMISS:          0
cpu0_ITLB WRITE        ACCESS:          0  HIT:          0  MISS:          0  iACCESS:          0  iHIT:          0  iMISS:          0  dACCESS:          0  dHIT:          0  dMISS:          0  itACCESS:          0  itHIT:          0  itMISS:          0  dtACCESS:          0  dtHIT:          0  dtMISS:          0
cpu0_ITLB TRANSLATION  ACCESS:          0  HIT:          0  MISS:          0  iACCESS:          0  iHIT:          0  iMISS:          0  dACCESS:          0  dHIT:          0  dMISS:          0  itACCESS:          0  itHIT:          0  itMISS:          0  dtACCESS:          0  dtHIT:          0  dtMISS:          0
cpu0_ITLB PREFETCH  REQUESTED:          0  ISSUED:          0  CROSSED:          0  USEFUL:     318301  USELESS:      63428
cpu0_ITLB AVERAGE iMISS LATENCY: 2.03823 cycles
cpu0_ITLB AVERAGE dMISS LATENCY: 0 cycles
cpu0_ITLB AVERAGE itMISS LATENCY: 0 cycles
cpu0_ITLB AVERAGE dtMISS LATENCY: 0 cycles
cpu0_ITLB PAGE CROSSINGS (TLB HIT):         0 
cpu0_ITLB PAGE CROSSINGS (TLB MISS):         0 
cpu0_ITLB AVERAGE MISS LATENCY: 2.03823 cycles
cpu0_DTLB TOTAL       ACCESS:   27902339  HIT:   25951443  MISS:    1950896  iACCESS:          0  iHIT:          0  iMISS:          0  dACCESS:   27902339  dHIT:   25951443  dMISS:    1950896  itACCESS:          0  itHIT:          0  itMISS:          0  dtACCESS:          0  dtHIT:          0  dtMISS:          0
cpu0_DTLB LOAD         ACCESS:   27902339  HIT:   25951443  MISS:    1950896  iACCESS:          0  iHIT:          0  iMISS:          0  dACCESS:   27902339  dHIT:   25951443  dMISS:    1950896  itACCESS:          0  itHIT:          0  itMISS:          0  dtACCESS:          0  dtHIT:          0  dtMISS:          0
cpu0_DTLB RFO          ACCESS:          0  HIT:          0  MISS:          0  iACCESS:          0  iHIT:          0  iMISS:          0  dACCESS:          0  dHIT:          0  dMISS:          0  itACCESS:          0  itHIT:          0  itMISS:          0  dtACCESS:          0  dtHIT:          0  dtMISS:          0
cpu0_DTLB PREFETCH     ACCESS:          0  HIT:          0  MISS:          0  iACCESS:          0  iHIT:          0  iMISS:          0  dACCESS:          0  dHIT:          0  dMISS:          0  itACCESS:          0  itHIT:          0  itMISS:          0  dtACCESS:          0  dtHIT:          0  dtMISS:          0
cpu0_DTLB WRITE        ACCESS:          0  HIT:          0  MISS:          0  iACCESS:          0  iHIT:          0  iMISS:          0  dACCESS:          0  dHIT:          0  dMISS:          0  itACCESS:          0  itHIT:          0  itMISS:          0  dtACCESS:          0  dtHIT:          0  dtMISS:          0
cpu0_DTLB TRANSLATION  ACCESS:          0  HIT:          0  MISS:          0  iACCESS:          0  iHIT:          0  iMISS:          0  dACCESS:          0  dHIT:          0  dMISS:          0  itACCESS:          0  itHIT:          0  itMISS:          0  dtACCESS:          0  dtHIT:          0  dtMISS:          0
cpu0_DTLB PREFETCH  REQUESTED:          0  ISSUED:          0  CROSSED:          0  USEFUL:          0  USELESS:          0
cpu0_DTLB AVERAGE iMISS LATENCY: 0 cycles
cpu0_DTLB AVERAGE dMISS LATENCY: 11.2418 cycles
cpu0_DTLB AVERAGE itMISS LATENCY: 0 cycles
cpu0_DTLB AVERAGE dtMISS LATENCY: 0 cycles
cpu0_DTLB PAGE CROSSINGS (TLB HIT):         0 
cpu0_DTLB PAGE CROSSINGS (TLB MISS):         0 
cpu0_DTLB AVERAGE MISS LATENCY: 11.2418 cycles
cpu0_STLB TOTAL       ACCESS:    1567366  HIT:    1418680  MISS:     148686  iACCESS:     381728  iHIT:     372404  iMISS:       9324  dACCESS:    1185638  dHIT:    1046276  dMISS:     139362  itACCESS:          0  itHIT:          0  itMISS:          0  dtACCESS:          0  dtHIT:          0  dtMISS:          0
cpu0_STLB LOAD         ACCESS:    1567366  HIT:    1418680  MISS:     148686  iACCESS:     381728  iHIT:     372404  iMISS:       9324  dACCESS:    1185638  dHIT:    1046276  dMISS:     139362  itACCESS:          0  itHIT:          0  itMISS:          0  dtACCESS:          0  dtHIT:          0  dtMISS:          0
cpu0_STLB RFO          ACCESS:          0  HIT:          0  MISS:          0  iACCESS:          0  iHIT:          0  iMISS:          0  dACCESS:          0  dHIT:          0  dMISS:          0  itACCESS:          0  itHIT:          0  itMISS:          0  dtACCESS:          0  dtHIT:          0  dtMISS:          0
cpu0_STLB PREFETCH     ACCESS:          0  HIT:          0  MISS:          0  iACCESS:          0  iHIT:          0  iMISS:          0  dACCESS:          0  dHIT:          0  dMISS:          0  itACCESS:          0  itHIT:          0  itMISS:          0  dtACCESS:          0  dtHIT:          0  dtMISS:          0
cpu0_STLB WRITE        ACCESS:          0  HIT:          0  MISS:          0  iACCESS:          0  iHIT:          0  iMISS:          0  dACCESS:          0  dHIT:          0  dMISS:          0  itACCESS:          0  itHIT:          0  itMISS:          0  dtACCESS:          0  dtHIT:          0  dtMISS:          0
cpu0_STLB TRANSLATION  ACCESS:          0  HIT:          0  MISS:          0  iACCESS:          0  iHIT:          0  iMISS:          0  dACCESS:          0  dHIT:          0  dMISS:          0  itACCESS:          0  itHIT:          0  itMISS:          0  dtACCESS:          0  dtHIT:          0  dtMISS:          0
cpu0_STLB PREFETCH  REQUESTED:          0  ISSUED:          0  CROSSED:          0  USEFUL:          0  USELESS:          0
cpu0_STLB AVERAGE iMISS LATENCY: 6.48814 cycles
cpu0_STLB AVERAGE dMISS LATENCY: 83.6314 cycles
cpu0_STLB AVERAGE itMISS LATENCY: 0 cycles
cpu0_STLB AVERAGE dtMISS LATENCY: 0 cycles
cpu0_STLB PAGE CROSSINGS (TLB HIT):         0 
cpu0_STLB PAGE CROSSINGS (TLB MISS):         0 
cpu0_STLB AVERAGE MISS LATENCY: 90.1196 cycles
cpu0_L1D TOTAL       ACCESS:   41706951  HIT:   38216681  MISS:    3490270  iACCESS:          0  iHIT:          0  iMISS:          0  dACCESS:   41486727  dHIT:   38203012  dMISS:    3283715  itACCESS:      10977  itHIT:       1116  itMISS:       9861  dtACCESS:     209247  dtHIT:      12553  dtMISS:     196694
cpu0_L1D LOAD         ACCESS:   19099876  HIT:   17610620  MISS:    1489256  iACCESS:          0  iHIT:          0  iMISS:          0  dACCESS:   19099876  dHIT:   17610620  dMISS:    1489256  itACCESS:          0  itHIT:          0  itMISS:          0  dtACCESS:          0  dtHIT:          0  dtMISS:          0
cpu0_L1D RFO          ACCESS:          0  HIT:          0  MISS:          0  iACCESS:          0  iHIT:          0  iMISS:          0  dACCESS:          0  dHIT:          0  dMISS:          0  itACCESS:          0  itHIT:          0  itMISS:          0  dtACCESS:          0  dtHIT:          0  dtMISS:          0
cpu0_L1D PREFETCH     ACCESS:   12200218  HIT:   10842008  MISS:    1358210  iACCESS:          0  iHIT:          0  iMISS:          0  dACCESS:   12200218  dHIT:   10842008  dMISS:    1358210  itACCESS:          0  itHIT:          0  itMISS:          0  dtACCESS:          0  dtHIT:          0  dtMISS:          0
cpu0_L1D WRITE        ACCESS:   10186633  HIT:    9750384  MISS:     436249  iACCESS:          0  iHIT:          0  iMISS:          0  dACCESS:   10186633  dHIT:    9750384  dMISS:     436249  itACCESS:          0  itHIT:          0  itMISS:          0  dtACCESS:          0  dtHIT:          0  dtMISS:          0
cpu0_L1D TRANSLATION  ACCESS:     220224  HIT:      13669  MISS:     206555  iACCESS:          0  iHIT:          0  iMISS:          0  dACCESS:          0  dHIT:          0  dMISS:          0  itACCESS:      10977  itHIT:       1116  itMISS:       9861  dtACCESS:     209247  dtHIT:      12553  dtMISS:     196694
cpu0_L1D PREFETCH  REQUESTED:   19099876  ISSUED:   17044899  CROSSED:          0  USEFUL:     309136  USELESS:     708460
cpu0_L1D AVERAGE iMISS LATENCY: 0 cycles
cpu0_L1D AVERAGE dMISS LATENCY: 29.5188 cycles
cpu0_L1D AVERAGE itMISS LATENCY: 0.247025 cycles
cpu0_L1D AVERAGE dtMISS LATENCY: 2.7787 cycles
cpu0_L1D PAGE CROSSINGS (TLB HIT):         0 
cpu0_L1D PAGE CROSSINGS (TLB MISS):         0 
cpu0_L1D AVERAGE MISS LATENCY: 32.5445 cycles
cpu0_L2C TOTAL       ACCESS:    7040012  HIT:    2638855  MISS:    4401157  iACCESS:    3316545  iHIT:    1467207  iMISS:    1849338  dACCESS:    3528289  dHIT:    1039010  dMISS:    2489279  itACCESS:       9861  itHIT:       3687  itMISS:       6174  dtACCESS:     185317  dtHIT:     128951  dtMISS:      56366
cpu0_L2C LOAD         ACCESS:    1712222  HIT:     577593  MISS:    1134629  iACCESS:     778221  iHIT:     322661  iMISS:     455560  dACCESS:     934001  dHIT:     254932  dMISS:     679069  itACCESS:          0  itHIT:          0  itMISS:          0  dtACCESS:          0  dtHIT:          0  dtMISS:          0
cpu0_L2C RFO          ACCESS:     159128  HIT:      35275  MISS:     123853  iACCESS:          0  iHIT:          0  iMISS:          0  dACCESS:     159128  dHIT:      35275  dMISS:     123853  itACCESS:          0  itHIT:          0  itMISS:          0  dtACCESS:          0  dtHIT:          0  dtMISS:          0
cpu0_L2C PREFETCH     ACCESS:    4690985  HIT:    1767777  MISS:    2923208  iACCESS:    2538324  iHIT:    1144546  iMISS:    1393778  dACCESS:    2152661  dHIT:     623231  dMISS:    1529430  itACCESS:          0  itHIT:          0  itMISS:          0  dtACCESS:          0  dtHIT:          0  dtMISS:          0
cpu0_L2C WRITE        ACCESS:     282499  HIT:     125572  MISS:     156927  iACCESS:          0  iHIT:          0  iMISS:          0  dACCESS:     282499  dHIT:     125572  dMISS:     156927  itACCESS:          0  itHIT:          0  itMISS:          0  dtACCESS:          0  dtHIT:          0  dtMISS:          0
cpu0_L2C TRANSLATION  ACCESS:     195178  HIT:     132638  MISS:      62540  iACCESS:          0  iHIT:          0  iMISS:          0  dACCESS:          0  dHIT:          0  dMISS:          0  itACCESS:       9861  itHIT:       3687  itMISS:       6174  dtACCESS:     185317  dtHIT:     128951  dtMISS:      56366
cpu0_L2C PREFETCH  REQUESTED:    1399362  ISSUED:    1399362  CROSSED:          0  USEFUL:     364379  USELESS:     329524
cpu0_L2C AVERAGE iMISS LATENCY: 13.6058 cycles
cpu0_L2C AVERAGE dMISS LATENCY: 26.1648 cycles
cpu0_L2C AVERAGE itMISS LATENCY: 0.174273 cycles
cpu0_L2C AVERAGE dtMISS LATENCY: 1.80958 cycles
cpu0_L2C PAGE CROSSINGS (TLB HIT):         0 
cpu0_L2C PAGE CROSSINGS (TLB MISS):         0 
cpu0_L2C AVERAGE MISS LATENCY: 41.7545 cycles
LLC TOTAL       ACCESS:    4352650  HIT:    3708370  MISS:     644280  iACCESS:    1801850  iHIT:    1636336  iMISS:     165514  dACCESS:    2488260  dHIT:    2052424  dMISS:     435836  itACCESS:       6174  itHIT:       2476  itMISS:       3698  dtACCESS:      56366  dtHIT:      17134  dtMISS:      39232
LLC LOAD         ACCESS:    1132860  HIT:     994060  MISS:     138800  iACCESS:     454317  iHIT:     420349  iMISS:      33968  dACCESS:     678543  dHIT:     573711  dMISS:     104832  itACCESS:          0  itHIT:          0  itMISS:          0  dtACCESS:          0  dtHIT:          0  dtMISS:          0
LLC RFO          ACCESS:     123848  HIT:      89738  MISS:      34110  iACCESS:          0  iHIT:          0  iMISS:          0  dACCESS:     123848  dHIT:      89738  dMISS:      34110  itACCESS:          0  itHIT:          0  itMISS:          0  dtACCESS:          0  dtHIT:          0  dtMISS:          0
LLC PREFETCH     ACCESS:    2835190  HIT:    2408838  MISS:     426352  iACCESS:    1347533  iHIT:    1215987  iMISS:     131546  dACCESS:    1487657  dHIT:    1192851  dMISS:     294806  itACCESS:          0  itHIT:          0  itMISS:          0  dtACCESS:          0  dtHIT:          0  dtMISS:          0
LLC WRITE        ACCESS:     198212  HIT:     196124  MISS:       2088  iACCESS:          0  iHIT:          0  iMISS:          0  dACCESS:     198212  dHIT:     196124  dMISS:       2088  itACCESS:          0  itHIT:          0  itMISS:          0  dtACCESS:          0  dtHIT:          0  dtMISS:          0
LLC TRANSLATION  ACCESS:      62540  HIT:      19610  MISS:      42930  iACCESS:          0  iHIT:          0  iMISS:          0  dACCESS:          0  dHIT:          0  dMISS:          0  itACCESS:       6174  itHIT:       2476  itMISS:       3698  dtACCESS:      56366  dtHIT:      17134  dtMISS:      39232
LLC PREFETCH  REQUESTED:          0  ISSUED:          0  CROSSED:          0  USEFUL:          0  USELESS:          0
LLC AVERAGE iMISS LATENCY: 39.0643 cycles
LLC AVERAGE dMISS LATENCY: 110.148 cycles
LLC AVERAGE itMISS LATENCY: 1.00316 cycles
LLC AVERAGE dtMISS LATENCY: 10.6427 cycles
LLC PAGE CROSSINGS (TLB HIT):         0 
LLC PAGE CROSSINGS (TLB MISS):         0 
LLC AVERAGE MISS LATENCY: 160.858 cycles

PageTableWalker TOTAL       ACCESS:      72700  
PageTableWalker AVERAGE LATENCY: 4.85797 cycles
PageTableWalker TOTAL LATENCY: 353174 cycles

DRAM Statistics
Channel 0
 RQ ROW_BUFFER_HIT:     160206
  ROW_BUFFER_MISS:     481959
 AVG DBUS CONGESTED CYCLE:    3.64179
 WQ ROW_BUFFER_HIT:      15020
  ROW_BUFFER_MISS:      25853  FULL:          0

