last_page:0x200000000000000
VMEM_RES_CAP:0x100000
PAGE_SIZE:4096
LOG2_PAGE_SIZE:12
LOG2_PAGE_TABLE_SIZE:9
page_table_levels:5
WARNING: physical memory size is smaller than virtual memory size
FDiP enabled with aggresivity 16

*** ChampSim Multicore Out-of-Order Simulator ***

Warmup Instructions: 50000000
Simulation Instructions: 100000000
Number of CPUs: 1
Small page size: 4096
Large page size: 2097152

CPU 0 Bimodal branch predictor
Basic BTB sets: 1024 ways: 8 indirect buffer size: 4096 RAS size: 64
Instruction page size distrubution: 0
Loading instruction page size distribution from /home/bsc/bsc018186/scratch/itp_asplos25_AE/dump/srv504_ap.pdst
Data page size distrubution: 0
Loading data page size distribution from /home/bsc/bsc018186/scratch/itp_asplos25_AE/dump/srv504_ap.pdst
cpu0_L2C IP-based stride prefetcher
cpu0_L1D next line prefetcher
cpu0_L1I next line prefetcher
Off-chip DRAM Size: 4 GiB Channels: 1 Width: 64-bit Data Rate: 3200 MT/s
Heartbeat CPU 0 instructions: 10000003 cycles: 2500396 heartbeat IPC: 3.99937 cumulative IPC: 3.99937 (Simulation time: 0 hr 0 min 35 sec) 
Heartbeat CPU 0 instructions: 20000002 cycles: 5002207 heartbeat IPC: 3.99711 cumulative IPC: 3.99824 (Simulation time: 0 hr 1 min 12 sec) 
Heartbeat CPU 0 instructions: 30000002 cycles: 7502308 heartbeat IPC: 3.99984 cumulative IPC: 3.99877 (Simulation time: 0 hr 1 min 50 sec) 
Heartbeat CPU 0 instructions: 40000001 cycles: 10002326 heartbeat IPC: 3.99998 cumulative IPC: 3.99907 (Simulation time: 0 hr 2 min 28 sec) 
Heartbeat CPU 0 instructions: 50000003 cycles: 12502442 heartbeat IPC: 3.99982 cumulative IPC: 3.99922 (Simulation time: 0 hr 3 min 6 sec) 
Warmup finished CPU 0 instructions: 50000003 cycles: 12502443 cumulative IPC: 3.99922 (Simulation time: 0 hr 3 min 6 sec) 

Warmup complete CPU 0 instructions: 50000003 cycles: 12502443 (Simulation time: 0 hr 3 min 6 sec) 

Heartbeat CPU 0 instructions: 60000002 cycles: 30683321 heartbeat IPC: 0.550029 cumulative IPC: 0.550029 (Simulation time: 0 hr 4 min 11 sec) 
Heartbeat CPU 0 instructions: 70000000 cycles: 49285146 heartbeat IPC: 0.537582 cumulative IPC: 0.543734 (Simulation time: 0 hr 5 min 17 sec) 
Heartbeat CPU 0 instructions: 80000000 cycles: 67364432 heartbeat IPC: 0.55312 cumulative IPC: 0.546827 (Simulation time: 0 hr 6 min 22 sec) 
Heartbeat CPU 0 instructions: 90000003 cycles: 85192474 heartbeat IPC: 0.560915 cumulative IPC: 0.550282 (Simulation time: 0 hr 7 min 27 sec) 
Heartbeat CPU 0 instructions: 100000000 cycles: 103238135 heartbeat IPC: 0.55415 cumulative IPC: 0.551052 (Simulation time: 0 hr 8 min 33 sec) 
*** Reached end of trace: /gpfs/projects/bsc18/MN4/bsc18/romol/ChampSim/traces/qualcomm_srv/srv504_ap.champsimtrace.xz
Heartbeat CPU 0 instructions: 110000004 cycles: 121119733 heartbeat IPC: 0.559235 cumulative IPC: 0.552399 (Simulation time: 0 hr 9 min 38 sec) 
Heartbeat CPU 0 instructions: 120000001 cycles: 139897499 heartbeat IPC: 0.532545 cumulative IPC: 0.549472 (Simulation time: 0 hr 10 min 45 sec) 
Heartbeat CPU 0 instructions: 130000004 cycles: 157098341 heartbeat IPC: 0.581368 cumulative IPC: 0.553267 (Simulation time: 0 hr 11 min 49 sec) 
Heartbeat CPU 0 instructions: 140000002 cycles: 175602585 heartbeat IPC: 0.540417 cumulative IPC: 0.551809 (Simulation time: 0 hr 12 min 55 sec) 
Heartbeat CPU 0 instructions: 150000003 cycles: 193358492 heartbeat IPC: 0.563193 cumulative IPC: 0.552926 (Simulation time: 0 hr 14 min 0 sec) 
Simulation finished CPU 0 instructions: 100000000 cycles: 180856050 cumulative IPC: 0.552926 (Simulation time: 0 hr 14 min 0 sec) 

Simulation complete CPU 0 instructions: 100000000 cycles: 180856050 (Simulation time: 0 hr 14 min 0 sec) 


ChampSim completed all CPUs

Saving instructions large page distribution to /home/bsc/bsc018186/scratch/itp_asplos25_AE/dump/srv504_ap.pdst...
Saving data large page distribution to /home/bsc/bsc018186/scratch/itp_asplos25_AE/dump/srv504_ap.pdst...
=== Simulation ===
CPU 0 runs /gpfs/projects/bsc18/MN4/bsc18/romol/ChampSim/traces/qualcomm_srv/srv504_ap.champsimtrace.xz

Region of Interest Statistics

CPU 0 cumulative IPC: 0.552926 instructions: 100000000 cycles: 180856050
CPU 0 Branch Prediction Accuracy: 80.3433% MPKI: 35.5672 Average ROB Occupancy at Mispredict: 10.3183
Branch type MPKI
BRANCH_DIRECT_JUMP: 1.31303
BRANCH_INDIRECT: 17.8998
BRANCH_CONDITIONAL: 11.5116
BRANCH_DIRECT_CALL: 2.48061
BRANCH_INDIRECT_CALL: 0.670041
BRANCH_RETURN: 1.69231

Instructions large pages: 0
Instructions small pages: 1177
Large page distribution for instructions: 0%

Data large pages: 0
Data small pages: 5330
Large page distribution for data: 0%

cpu0_L1I TOTAL       ACCESS:   36464184  HIT:   27996671  MISS:    8467513  iACCESS:   36464184  iHIT:   27996671  iMISS:    8467513  dACCESS:          0  dHIT:          0  dMISS:          0  itACCESS:          0  itHIT:          0  itMISS:          0  dtACCESS:          0  dtHIT:          0  dtMISS:          0
cpu0_L1I LOAD         ACCESS:   10659053  HIT:    8329627  MISS:    2329426  iACCESS:   10659053  iHIT:    8329627  iMISS:    2329426  dACCESS:          0  dHIT:          0  dMISS:          0  itACCESS:          0  itHIT:          0  itMISS:          0  dtACCESS:          0  dtHIT:          0  dtMISS:          0
cpu0_L1I RFO          ACCESS:          0  HIT:          0  MISS:          0  iACCESS:          0  iHIT:          0  iMISS:          0  dACCESS:          0  dHIT:          0  dMISS:          0  itACCESS:          0  itHIT:          0  itMISS:          0  dtACCESS:          0  dtHIT:          0  dtMISS:          0
cpu0_L1I PREFETCH     ACCESS:   25805131  HIT:   19667044  MISS:    6138087  iACCESS:   25805131  iHIT:   19667044  iMISS:    6138087  dACCESS:          0  dHIT:          0  dMISS:          0  itACCESS:          0  itHIT:          0  itMISS:          0  dtACCESS:          0  dtHIT:          0  dtMISS:          0
cpu0_L1I WRITE        ACCESS:          0  HIT:          0  MISS:          0  iACCESS:          0  iHIT:          0  iMISS:          0  dACCESS:          0  dHIT:          0  dMISS:          0  itACCESS:          0  itHIT:          0  itMISS:          0  dtACCESS:          0  dtHIT:          0  dtMISS:          0
cpu0_L1I TRANSLATION  ACCESS:          0  HIT:          0  MISS:          0  iACCESS:          0  iHIT:          0  iMISS:          0  dACCESS:          0  dHIT:          0  dMISS:          0  itACCESS:          0  itHIT:          0  itMISS:          0  dtACCESS:          0  dtHIT:          0  dtMISS:          0
cpu0_L1I PREFETCH  REQUESTED:   28191323  ISSUED:   28190049  CROSSED:          0  USEFUL:    2015460  USELESS:     660504
cpu0_L1I AVERAGE iMISS LATENCY: 18.2145 cycles
cpu0_L1I AVERAGE dMISS LATENCY: 0 cycles
cpu0_L1I AVERAGE itMISS LATENCY: 0 cycles
cpu0_L1I AVERAGE dtMISS LATENCY: 0 cycles
cpu0_L1I PAGE CROSSINGS (TLB HIT):         0 
cpu0_L1I PAGE CROSSINGS (TLB MISS):         0 
cpu0_L1I AVERAGE MISS LATENCY: 18.2145 cycles
cpu0_ITLB TOTAL       ACCESS:   30398862  HIT:   28436301  MISS:    1962561  iACCESS:   30398862  iHIT:   28436301  iMISS:    1962561  dACCESS:          0  dHIT:          0  dMISS:          0  itACCESS:          0  itHIT:          0  itMISS:          0  dtACCESS:          0  dtHIT:          0  dtMISS:          0
cpu0_ITLB LOAD         ACCESS:   30398862  HIT:   28436301  MISS:    1962561  iACCESS:   30398862  iHIT:   28436301  iMISS:    1962561  dACCESS:          0  dHIT:          0  dMISS:          0  itACCESS:          0  itHIT:          0  itMISS:          0  dtACCESS:          0  dtHIT:          0  dtMISS:          0
cpu0_ITLB RFO          ACCESS:          0  HIT:          0  MISS:          0  iACCESS:          0  iHIT:          0  iMISS:          0  dACCESS:          0  dHIT:          0  dMISS:          0  itACCESS:          0  itHIT:          0  itMISS:          0  dtACCESS:          0  dtHIT:          0  dtMISS:          0
cpu0_ITLB PREFETCH     ACCESS:          0  HIT:          0  MISS:          0  iACCESS:          0  iHIT:          0  iMISS:          0  dACCESS:          0  dHIT:          0  dMISS:          0  itACCESS:          0  itHIT:          0  itMISS:          0  dtACCESS:          0  dtHIT:          0  dtMISS:          0
cpu0_ITLB WRITE        ACCESS:          0  HIT:          0  MISS:          0  iACCESS:          0  iHIT:          0  iMISS:          0  dACCESS:          0  dHIT:          0  dMISS:          0  itACCESS:          0  itHIT:          0  itMISS:          0  dtACCESS:          0  dtHIT:          0  dtMISS:          0
cpu0_ITLB TRANSLATION  ACCESS:          0  HIT:          0  MISS:          0  iACCESS:          0  iHIT:          0  iMISS:          0  dACCESS:          0  dHIT:          0  dMISS:          0  itACCESS:          0  itHIT:          0  itMISS:          0  dtACCESS:          0  dtHIT:          0  dtMISS:          0
cpu0_ITLB PREFETCH  REQUESTED:          0  ISSUED:          0  CROSSED:          0  USEFUL:     329783  USELESS:      66256
cpu0_ITLB AVERAGE iMISS LATENCY: 4.06079 cycles
cpu0_ITLB AVERAGE dMISS LATENCY: 0 cycles
cpu0_ITLB AVERAGE itMISS LATENCY: 0 cycles
cpu0_ITLB AVERAGE dtMISS LATENCY: 0 cycles
cpu0_ITLB PAGE CROSSINGS (TLB HIT):         0 
cpu0_ITLB PAGE CROSSINGS (TLB MISS):         0 
cpu0_ITLB AVERAGE MISS LATENCY: 4.06079 cycles
cpu0_DTLB TOTAL       ACCESS:   28002024  HIT:   25927399  MISS:    2074625  iACCESS:          0  iHIT:          0  iMISS:          0  dACCESS:   28002024  dHIT:   25927399  dMISS:    2074625  itACCESS:          0  itHIT:          0  itMISS:          0  dtACCESS:          0  dtHIT:          0  dtMISS:          0
cpu0_DTLB LOAD         ACCESS:   28002024  HIT:   25927399  MISS:    2074625  iACCESS:          0  iHIT:          0  iMISS:          0  dACCESS:   28002024  dHIT:   25927399  dMISS:    2074625  itACCESS:          0  itHIT:          0  itMISS:          0  dtACCESS:          0  dtHIT:          0  dtMISS:          0
cpu0_DTLB RFO          ACCESS:          0  HIT:          0  MISS:          0  iACCESS:          0  iHIT:          0  iMISS:          0  dACCESS:          0  dHIT:          0  dMISS:          0  itACCESS:          0  itHIT:          0  itMISS:          0  dtACCESS:          0  dtHIT:          0  dtMISS:          0
cpu0_DTLB PREFETCH     ACCESS:          0  HIT:          0  MISS:          0  iACCESS:          0  iHIT:          0  iMISS:          0  dACCESS:          0  dHIT:          0  dMISS:          0  itACCESS:          0  itHIT:          0  itMISS:          0  dtACCESS:          0  dtHIT:          0  dtMISS:          0
cpu0_DTLB WRITE        ACCESS:          0  HIT:          0  MISS:          0  iACCESS:          0  iHIT:          0  iMISS:          0  dACCESS:          0  dHIT:          0  dMISS:          0  itACCESS:          0  itHIT:          0  itMISS:          0  dtACCESS:          0  dtHIT:          0  dtMISS:          0
cpu0_DTLB TRANSLATION  ACCESS:          0  HIT:          0  MISS:          0  iACCESS:          0  iHIT:          0  iMISS:          0  dACCESS:          0  dHIT:          0  dMISS:          0  itACCESS:          0  itHIT:          0  itMISS:          0  dtACCESS:          0  dtHIT:          0  dtMISS:          0
cpu0_DTLB PREFETCH  REQUESTED:          0  ISSUED:          0  CROSSED:          0  USEFUL:          0  USELESS:          0
cpu0_DTLB AVERAGE iMISS LATENCY: 0 cycles
cpu0_DTLB AVERAGE dMISS LATENCY: 11.1419 cycles
cpu0_DTLB AVERAGE itMISS LATENCY: 0 cycles
cpu0_DTLB AVERAGE dtMISS LATENCY: 0 cycles
cpu0_DTLB PAGE CROSSINGS (TLB HIT):         0 
cpu0_DTLB PAGE CROSSINGS (TLB MISS):         0 
cpu0_DTLB AVERAGE MISS LATENCY: 11.1419 cycles
cpu0_STLB TOTAL       ACCESS:    1619619  HIT:    1397002  MISS:     222617  iACCESS:     396041  iHIT:     310646  iMISS:      85395  dACCESS:    1223578  dHIT:    1086356  dMISS:     137222  itACCESS:          0  itHIT:          0  itMISS:          0  dtACCESS:          0  dtHIT:          0  dtMISS:          0
cpu0_STLB LOAD         ACCESS:    1619619  HIT:    1397002  MISS:     222617  iACCESS:     396041  iHIT:     310646  iMISS:      85395  dACCESS:    1223578  dHIT:    1086356  dMISS:     137222  itACCESS:          0  itHIT:          0  itMISS:          0  dtACCESS:          0  dtHIT:          0  dtMISS:          0
cpu0_STLB RFO          ACCESS:          0  HIT:          0  MISS:          0  iACCESS:          0  iHIT:          0  iMISS:          0  dACCESS:          0  dHIT:          0  dMISS:          0  itACCESS:          0  itHIT:          0  itMISS:          0  dtACCESS:          0  dtHIT:          0  dtMISS:          0
cpu0_STLB PREFETCH     ACCESS:          0  HIT:          0  MISS:          0  iACCESS:          0  iHIT:          0  iMISS:          0  dACCESS:          0  dHIT:          0  dMISS:          0  itACCESS:          0  itHIT:          0  itMISS:          0  dtACCESS:          0  dtHIT:          0  dtMISS:          0
cpu0_STLB WRITE        ACCESS:          0  HIT:          0  MISS:          0  iACCESS:          0  iHIT:          0  iMISS:          0  dACCESS:          0  dHIT:          0  dMISS:          0  itACCESS:          0  itHIT:          0  itMISS:          0  dtACCESS:          0  dtHIT:          0  dtMISS:          0
cpu0_STLB TRANSLATION  ACCESS:          0  HIT:          0  MISS:          0  iACCESS:          0  iHIT:          0  iMISS:          0  dACCESS:          0  dHIT:          0  dMISS:          0  itACCESS:          0  itHIT:          0  itMISS:          0  dtACCESS:          0  dtHIT:          0  dtMISS:          0
cpu0_STLB PREFETCH  REQUESTED:          0  ISSUED:          0  CROSSED:          0  USEFUL:          0  USELESS:          0
cpu0_STLB AVERAGE iMISS LATENCY: 21.6384 cycles
cpu0_STLB AVERAGE dMISS LATENCY: 60.0265 cycles
cpu0_STLB AVERAGE itMISS LATENCY: 0 cycles
cpu0_STLB AVERAGE dtMISS LATENCY: 0 cycles
cpu0_STLB PAGE CROSSINGS (TLB HIT):         0 
cpu0_STLB PAGE CROSSINGS (TLB MISS):         0 
cpu0_STLB AVERAGE MISS LATENCY: 81.6648 cycles
cpu0_L1D TOTAL       ACCESS:   43207602  HIT:   38568800  MISS:    4638802  iACCESS:          0  iHIT:          0  iMISS:          0  dACCESS:   42920619  dHIT:   38545472  dMISS:    4375147  itACCESS:      91173  itHIT:      12471  itMISS:      78702  dtACCESS:     195810  dtHIT:      10857  dtMISS:     184953
cpu0_L1D LOAD         ACCESS:   19610476  HIT:   17590632  MISS:    2019844  iACCESS:          0  iHIT:          0  iMISS:          0  dACCESS:   19610476  dHIT:   17590632  dMISS:    2019844  itACCESS:          0  itHIT:          0  itMISS:          0  dtACCESS:          0  dtHIT:          0  dtMISS:          0
cpu0_L1D RFO          ACCESS:          0  HIT:          0  MISS:          0  iACCESS:          0  iHIT:          0  iMISS:          0  dACCESS:          0  dHIT:          0  dMISS:          0  itACCESS:          0  itHIT:          0  itMISS:          0  dtACCESS:          0  dtHIT:          0  dtMISS:          0
cpu0_L1D PREFETCH     ACCESS:   13153070  HIT:   11247166  MISS:    1905904  iACCESS:          0  iHIT:          0  iMISS:          0  dACCESS:   13153070  dHIT:   11247166  dMISS:    1905904  itACCESS:          0  itHIT:          0  itMISS:          0  dtACCESS:          0  dtHIT:          0  dtMISS:          0
cpu0_L1D WRITE        ACCESS:   10157073  HIT:    9707674  MISS:     449399  iACCESS:          0  iHIT:          0  iMISS:          0  dACCESS:   10157073  dHIT:    9707674  dMISS:     449399  itACCESS:          0  itHIT:          0  itMISS:          0  dtACCESS:          0  dtHIT:          0  dtMISS:          0
cpu0_L1D TRANSLATION  ACCESS:     286983  HIT:      23328  MISS:     263655  iACCESS:          0  iHIT:          0  iMISS:          0  dACCESS:          0  dHIT:          0  dMISS:          0  itACCESS:      91173  itHIT:      12471  itMISS:      78702  dtACCESS:     195810  dtHIT:      10857  dtMISS:     184953
cpu0_L1D PREFETCH  REQUESTED:   19610476  ISSUED:   17464991  CROSSED:          0  USEFUL:     309891  USELESS:     705513
cpu0_L1D AVERAGE iMISS LATENCY: 0 cycles
cpu0_L1D AVERAGE dMISS LATENCY: 34.5958 cycles
cpu0_L1D AVERAGE itMISS LATENCY: 0.878493 cycles
cpu0_L1D AVERAGE dtMISS LATENCY: 2.46198 cycles
cpu0_L1D PAGE CROSSINGS (TLB HIT):         0 
cpu0_L1D PAGE CROSSINGS (TLB MISS):         0 
cpu0_L1D AVERAGE MISS LATENCY: 37.9363 cycles
cpu0_L2C TOTAL       ACCESS:    7342673  HIT:    1677632  MISS:    5665041  iACCESS:    3423756  iHIT:     877757  iMISS:    2545999  dACCESS:    3667157  dHIT:     649277  dMISS:    3017880  itACCESS:      78702  itHIT:      53932  itMISS:      24770  dtACCESS:     173058  dtHIT:      96666  dtMISS:      76392
cpu0_L2C LOAD         ACCESS:    1740897  HIT:     272248  MISS:    1468649  iACCESS:     784751  iHIT:     150035  iMISS:     634716  dACCESS:     956146  dHIT:     122213  dMISS:     833933  itACCESS:          0  itHIT:          0  itMISS:          0  dtACCESS:          0  dtHIT:          0  dtMISS:          0
cpu0_L2C RFO          ACCESS:     163154  HIT:      43887  MISS:     119267  iACCESS:          0  iHIT:          0  iMISS:          0  dACCESS:     163154  dHIT:      43887  dMISS:     119267  itACCESS:          0  itHIT:          0  itMISS:          0  dtACCESS:          0  dtHIT:          0  dtMISS:          0
cpu0_L2C PREFETCH     ACCESS:    4907543  HIT:    1087688  MISS:    3819855  iACCESS:    2639005  iHIT:     727722  iMISS:    1911283  dACCESS:    2268538  dHIT:     359966  dMISS:    1908572  itACCESS:          0  itHIT:          0  itMISS:          0  dtACCESS:          0  dtHIT:          0  dtMISS:          0
cpu0_L2C WRITE        ACCESS:     279319  HIT:     123211  MISS:     156108  iACCESS:          0  iHIT:          0  iMISS:          0  dACCESS:     279319  dHIT:     123211  dMISS:     156108  itACCESS:          0  itHIT:          0  itMISS:          0  dtACCESS:          0  dtHIT:          0  dtMISS:          0
cpu0_L2C TRANSLATION  ACCESS:     251760  HIT:     150598  MISS:     101162  iACCESS:          0  iHIT:          0  iMISS:          0  dACCESS:          0  dHIT:          0  dMISS:          0  itACCESS:      78702  itHIT:      53932  itMISS:      24770  dtACCESS:     173058  dtHIT:      96666  dtMISS:      76392
cpu0_L2C PREFETCH  REQUESTED:    1521390  ISSUED:    1521388  CROSSED:          0  USEFUL:     428138  USELESS:     423055
cpu0_L2C AVERAGE iMISS LATENCY: 21.7716 cycles
cpu0_L2C AVERAGE dMISS LATENCY: 35.5856 cycles
cpu0_L2C AVERAGE itMISS LATENCY: 0.589583 cycles
cpu0_L2C AVERAGE dtMISS LATENCY: 1.7264 cycles
cpu0_L2C PAGE CROSSINGS (TLB HIT):         0 
cpu0_L2C PAGE CROSSINGS (TLB MISS):         0 
cpu0_L2C AVERAGE MISS LATENCY: 59.6732 cycles
LLC TOTAL       ACCESS:    5486895  HIT:    3983253  MISS:    1503642  iACCESS:    2469888  iHIT:    1948135  iMISS:     521753  dACCESS:    2915845  dHIT:    1995271  dMISS:     920574  itACCESS:      24770  itHIT:       8435  itMISS:      16335  dtACCESS:      76392  dtHIT:      31412  dtMISS:      44980
LLC LOAD         ACCESS:    1462048  HIT:    1126082  MISS:     335966  iACCESS:     633468  iHIT:     523880  iMISS:     109588  dACCESS:     828580  dHIT:     602202  dMISS:     226378  itACCESS:          0  itHIT:          0  itMISS:          0  dtACCESS:          0  dtHIT:          0  dtMISS:          0
LLC RFO          ACCESS:     119259  HIT:      68242  MISS:      51017  iACCESS:          0  iHIT:          0  iMISS:          0  dACCESS:     119259  dHIT:      68242  dMISS:      51017  itACCESS:          0  itHIT:          0  itMISS:          0  dtACCESS:          0  dtHIT:          0  dtMISS:          0
LLC PREFETCH     ACCESS:    3646907  HIT:    2601854  MISS:    1045053  iACCESS:    1836420  iHIT:    1424255  iMISS:     412165  dACCESS:    1810487  dHIT:    1177599  dMISS:     632888  itACCESS:          0  itHIT:          0  itMISS:          0  dtACCESS:          0  dtHIT:          0  dtMISS:          0
LLC WRITE        ACCESS:     157519  HIT:     147228  MISS:      10291  iACCESS:          0  iHIT:          0  iMISS:          0  dACCESS:     157519  dHIT:     147228  dMISS:      10291  itACCESS:          0  itHIT:          0  itMISS:          0  dtACCESS:          0  dtHIT:          0  dtMISS:          0
LLC TRANSLATION  ACCESS:     101162  HIT:      39847  MISS:      61315  iACCESS:          0  iHIT:          0  iMISS:          0  dACCESS:          0  dHIT:          0  dMISS:          0  itACCESS:      24770  itHIT:       8435  itMISS:      16335  dtACCESS:      76392  dtHIT:      31412  dtMISS:      44980
LLC PREFETCH  REQUESTED:          0  ISSUED:          0  CROSSED:          0  USEFUL:          0  USELESS:          0
LLC AVERAGE iMISS LATENCY: 50.2272 cycles
LLC AVERAGE dMISS LATENCY: 99.8494 cycles
LLC AVERAGE itMISS LATENCY: 1.89807 cycles
LLC AVERAGE dtMISS LATENCY: 5.51105 cycles
LLC PAGE CROSSINGS (TLB HIT):         0 
LLC PAGE CROSSINGS (TLB MISS):         0 
LLC AVERAGE MISS LATENCY: 157.486 cycles

PageTableWalker TOTAL       ACCESS:     113202  
PageTableWalker AVERAGE LATENCY: 4.25733 cycles
PageTableWalker TOTAL LATENCY: 481938 cycles

DRAM Statistics
Channel 0
 RQ ROW_BUFFER_HIT:     451338
  ROW_BUFFER_MISS:    1022584
 AVG DBUS CONGESTED CYCLE:      3.633
 WQ ROW_BUFFER_HIT:      29652
  ROW_BUFFER_MISS:      24247  FULL:          0

