last_page:0x200000000000000
VMEM_RES_CAP:0x100000
PAGE_SIZE:4096
LOG2_PAGE_SIZE:12
LOG2_PAGE_TABLE_SIZE:9
page_table_levels:5
WARNING: physical memory size is smaller than virtual memory size
FDiP enabled with aggresivity 16

*** ChampSim Multicore Out-of-Order Simulator ***

Warmup Instructions: 50000000
Simulation Instructions: 100000000
Number of CPUs: 1
Small page size: 4096
Large page size: 2097152

CPU 0 Bimodal branch predictor
Basic BTB sets: 1024 ways: 8 indirect buffer size: 4096 RAS size: 64
Instruction page size distrubution: 0
Loading instruction page size distribution from /home/bsc/bsc018186/scratch/itp_asplos25_AE/dump/srv596_ap.pdst
Data page size distrubution: 0
Loading data page size distribution from /home/bsc/bsc018186/scratch/itp_asplos25_AE/dump/srv596_ap.pdst
cpu0_L2C IP-based stride prefetcher
cpu0_L2C is using xPTP/LRU
	TLB_LOWER_STRESS_THRESHOLD:1
	TLB_UPPER_STRESS_THRESHOLD:9
	MIN_EVICTION_POSITION:4
cpu0_L1D next line prefetcher
cpu0_STLB using iTP with max lru@8
cpu0_STLB using iTP with instr@0 and data@2
Init sat counter with 3 bits (max:50).
cpu0_L1I next line prefetcher
Off-chip DRAM Size: 4 GiB Channels: 1 Width: 64-bit Data Rate: 3200 MT/s
Heartbeat CPU 0 instructions: 10000003 cycles: 2500294 heartbeat IPC: 3.99954 cumulative IPC: 3.99954 (Simulation time: 0 hr 0 min 43 sec) 
Heartbeat CPU 0 instructions: 20000000 cycles: 5002173 heartbeat IPC: 3.997 cumulative IPC: 3.99827 (Simulation time: 0 hr 1 min 29 sec) 
Heartbeat CPU 0 instructions: 30000002 cycles: 7502188 heartbeat IPC: 3.99998 cumulative IPC: 3.99884 (Simulation time: 0 hr 2 min 15 sec) 
Heartbeat CPU 0 instructions: 40000001 cycles: 10002207 heartbeat IPC: 3.99997 cumulative IPC: 3.99912 (Simulation time: 0 hr 3 min 1 sec) 
Heartbeat CPU 0 instructions: 50000003 cycles: 12502208 heartbeat IPC: 4 cumulative IPC: 3.9993 (Simulation time: 0 hr 3 min 47 sec) 
Warmup finished CPU 0 instructions: 50000003 cycles: 12502209 cumulative IPC: 3.9993 (Simulation time: 0 hr 3 min 47 sec) 

Warmup complete CPU 0 instructions: 50000003 cycles: 12502209 (Simulation time: 0 hr 3 min 47 sec) 

Heartbeat CPU 0 instructions: 60000000 cycles: 25715331 heartbeat IPC: 0.756824 cumulative IPC: 0.756824 (Simulation time: 0 hr 4 min 58 sec) 
Heartbeat CPU 0 instructions: 70000001 cycles: 38534526 heartbeat IPC: 0.780081 cumulative IPC: 0.768276 (Simulation time: 0 hr 6 min 10 sec) 
Heartbeat CPU 0 instructions: 80000003 cycles: 51142020 heartbeat IPC: 0.79318 cumulative IPC: 0.776402 (Simulation time: 0 hr 7 min 21 sec) 
Heartbeat CPU 0 instructions: 90000000 cycles: 64210278 heartbeat IPC: 0.765213 cumulative IPC: 0.773574 (Simulation time: 0 hr 8 min 32 sec) 
Heartbeat CPU 0 instructions: 100000004 cycles: 76745051 heartbeat IPC: 0.797782 cumulative IPC: 0.778297 (Simulation time: 0 hr 9 min 41 sec) 
*** Reached end of trace: /gpfs/projects/bsc18/MN4/bsc18/romol/ChampSim/traces/qualcomm_srv/srv596_ap.champsimtrace.xz
Heartbeat CPU 0 instructions: 110000000 cycles: 89907372 heartbeat IPC: 0.759745 cumulative IPC: 0.775143 (Simulation time: 0 hr 10 min 51 sec) 
Heartbeat CPU 0 instructions: 120000000 cycles: 102136315 heartbeat IPC: 0.817733 cumulative IPC: 0.780953 (Simulation time: 0 hr 11 min 57 sec) 
Heartbeat CPU 0 instructions: 130000000 cycles: 115374599 heartbeat IPC: 0.755385 cumulative IPC: 0.777663 (Simulation time: 0 hr 13 min 3 sec) 
Heartbeat CPU 0 instructions: 140000004 cycles: 128286789 heartbeat IPC: 0.774463 cumulative IPC: 0.777306 (Simulation time: 0 hr 14 min 9 sec) 
Heartbeat CPU 0 instructions: 150000002 cycles: 140568956 heartbeat IPC: 0.814189 cumulative IPC: 0.780843 (Simulation time: 0 hr 15 min 16 sec) 
Simulation finished CPU 0 instructions: 100000004 cycles: 128066749 cumulative IPC: 0.780843 (Simulation time: 0 hr 15 min 16 sec) 

Simulation complete CPU 0 instructions: 100000004 cycles: 128066749 (Simulation time: 0 hr 15 min 16 sec) 


ChampSim completed all CPUs

Saving instructions large page distribution to /home/bsc/bsc018186/scratch/itp_asplos25_AE/dump/srv596_ap.pdst...
Saving data large page distribution to /home/bsc/bsc018186/scratch/itp_asplos25_AE/dump/srv596_ap.pdst...
=== Simulation ===
CPU 0 runs /gpfs/projects/bsc18/MN4/bsc18/romol/ChampSim/traces/qualcomm_srv/srv596_ap.champsimtrace.xz

Region of Interest Statistics

CPU 0 cumulative IPC: 0.780843 instructions: 100000004 cycles: 128066749
CPU 0 Branch Prediction Accuracy: 83.2564% MPKI: 30.0697 Average ROB Occupancy at Mispredict: 12.3944
Branch type MPKI
BRANCH_DIRECT_JUMP: 0.97979
BRANCH_INDIRECT: 15.5639
BRANCH_CONDITIONAL: 9.80265
BRANCH_DIRECT_CALL: 1.86504
BRANCH_INDIRECT_CALL: 0.50743
BRANCH_RETURN: 1.35089

Instructions large pages: 0
Instructions small pages: 936
Large page distribution for instructions: 0%

Data large pages: 0
Data small pages: 9216
Large page distribution for data: 0%

cpu0_L1I TOTAL       ACCESS:   34740514  HIT:   26615057  MISS:    8125457  iACCESS:   34740514  iHIT:   26615057  iMISS:    8125457  dACCESS:          0  dHIT:          0  dMISS:          0  itACCESS:          0  itHIT:          0  itMISS:          0  dtACCESS:          0  dtHIT:          0  dtMISS:          0
cpu0_L1I LOAD         ACCESS:   10114486  HIT:    7838598  MISS:    2275888  iACCESS:   10114486  iHIT:    7838598  iMISS:    2275888  dACCESS:          0  dHIT:          0  dMISS:          0  itACCESS:          0  itHIT:          0  itMISS:          0  dtACCESS:          0  dtHIT:          0  dtMISS:          0
cpu0_L1I RFO          ACCESS:          0  HIT:          0  MISS:          0  iACCESS:          0  iHIT:          0  iMISS:          0  dACCESS:          0  dHIT:          0  dMISS:          0  itACCESS:          0  itHIT:          0  itMISS:          0  dtACCESS:          0  dtHIT:          0  dtMISS:          0
cpu0_L1I PREFETCH     ACCESS:   24626028  HIT:   18776459  MISS:    5849569  iACCESS:   24626028  iHIT:   18776459  iMISS:    5849569  dACCESS:          0  dHIT:          0  dMISS:          0  itACCESS:          0  itHIT:          0  itMISS:          0  dtACCESS:          0  dtHIT:          0  dtMISS:          0
cpu0_L1I WRITE        ACCESS:          0  HIT:          0  MISS:          0  iACCESS:          0  iHIT:          0  iMISS:          0  dACCESS:          0  dHIT:          0  dMISS:          0  itACCESS:          0  itHIT:          0  itMISS:          0  dtACCESS:          0  dtHIT:          0  dtMISS:          0
cpu0_L1I TRANSLATION  ACCESS:          0  HIT:          0  MISS:          0  iACCESS:          0  iHIT:          0  iMISS:          0  dACCESS:          0  dHIT:          0  dMISS:          0  itACCESS:          0  itHIT:          0  itMISS:          0  dtACCESS:          0  dtHIT:          0  dtMISS:          0
cpu0_L1I PREFETCH  REQUESTED:   27011444  ISSUED:   27011352  CROSSED:          0  USEFUL:    1937213  USELESS:     636079
cpu0_L1I AVERAGE iMISS LATENCY: 10.9318 cycles
cpu0_L1I AVERAGE dMISS LATENCY: 0 cycles
cpu0_L1I AVERAGE itMISS LATENCY: 0 cycles
cpu0_L1I AVERAGE dtMISS LATENCY: 0 cycles
cpu0_L1I PAGE CROSSINGS (TLB HIT):         0 
cpu0_L1I PAGE CROSSINGS (TLB MISS):         0 
cpu0_L1I AVERAGE MISS LATENCY: 10.9318 cycles
cpu0_ITLB TOTAL       ACCESS:   28955016  HIT:   26979318  MISS:    1975698  iACCESS:   28955016  iHIT:   26979318  iMISS:    1975698  dACCESS:          0  dHIT:          0  dMISS:          0  itACCESS:          0  itHIT:          0  itMISS:          0  dtACCESS:          0  dtHIT:          0  dtMISS:          0
cpu0_ITLB LOAD         ACCESS:   28955016  HIT:   26979318  MISS:    1975698  iACCESS:   28955016  iHIT:   26979318  iMISS:    1975698  dACCESS:          0  dHIT:          0  dMISS:          0  itACCESS:          0  itHIT:          0  itMISS:          0  dtACCESS:          0  dtHIT:          0  dtMISS:          0
cpu0_ITLB RFO          ACCESS:          0  HIT:          0  MISS:          0  iACCESS:          0  iHIT:          0  iMISS:          0  dACCESS:          0  dHIT:          0  dMISS:          0  itACCESS:          0  itHIT:          0  itMISS:          0  dtACCESS:          0  dtHIT:          0  dtMISS:          0
cpu0_ITLB PREFETCH     ACCESS:          0  HIT:          0  MISS:          0  iACCESS:          0  iHIT:          0  iMISS:          0  dACCESS:          0  dHIT:          0  dMISS:          0  itACCESS:          0  itHIT:          0  itMISS:          0  dtACCESS:          0  dtHIT:          0  dtMISS:          0
cpu0_ITLB WRITE        ACCESS:          0  HIT:          0  MISS:          0  iACCESS:          0  iHIT:          0  iMISS:          0  dACCESS:          0  dHIT:          0  dMISS:          0  itACCESS:          0  itHIT:          0  itMISS:          0  dtACCESS:          0  dtHIT:          0  dtMISS:          0
cpu0_ITLB TRANSLATION  ACCESS:          0  HIT:          0  MISS:          0  iACCESS:          0  iHIT:          0  iMISS:          0  dACCESS:          0  dHIT:          0  dMISS:          0  itACCESS:          0  itHIT:          0  itMISS:          0  dtACCESS:          0  dtHIT:          0  dtMISS:          0
cpu0_ITLB PREFETCH  REQUESTED:          0  ISSUED:          0  CROSSED:          0  USEFUL:     325786  USELESS:      62479
cpu0_ITLB AVERAGE iMISS LATENCY: 1.8492 cycles
cpu0_ITLB AVERAGE dMISS LATENCY: 0 cycles
cpu0_ITLB AVERAGE itMISS LATENCY: 0 cycles
cpu0_ITLB AVERAGE dtMISS LATENCY: 0 cycles
cpu0_ITLB PAGE CROSSINGS (TLB HIT):         0 
cpu0_ITLB PAGE CROSSINGS (TLB MISS):         0 
cpu0_ITLB AVERAGE MISS LATENCY: 1.8492 cycles
cpu0_DTLB TOTAL       ACCESS:   27721275  HIT:   25682527  MISS:    2038748  iACCESS:          0  iHIT:          0  iMISS:          0  dACCESS:   27721275  dHIT:   25682527  dMISS:    2038748  itACCESS:          0  itHIT:          0  itMISS:          0  dtACCESS:          0  dtHIT:          0  dtMISS:          0
cpu0_DTLB LOAD         ACCESS:   27721275  HIT:   25682527  MISS:    2038748  iACCESS:          0  iHIT:          0  iMISS:          0  dACCESS:   27721275  dHIT:   25682527  dMISS:    2038748  itACCESS:          0  itHIT:          0  itMISS:          0  dtACCESS:          0  dtHIT:          0  dtMISS:          0
cpu0_DTLB RFO          ACCESS:          0  HIT:          0  MISS:          0  iACCESS:          0  iHIT:          0  iMISS:          0  dACCESS:          0  dHIT:          0  dMISS:          0  itACCESS:          0  itHIT:          0  itMISS:          0  dtACCESS:          0  dtHIT:          0  dtMISS:          0
cpu0_DTLB PREFETCH     ACCESS:          0  HIT:          0  MISS:          0  iACCESS:          0  iHIT:          0  iMISS:          0  dACCESS:          0  dHIT:          0  dMISS:          0  itACCESS:          0  itHIT:          0  itMISS:          0  dtACCESS:          0  dtHIT:          0  dtMISS:          0
cpu0_DTLB WRITE        ACCESS:          0  HIT:          0  MISS:          0  iACCESS:          0  iHIT:          0  iMISS:          0  dACCESS:          0  dHIT:          0  dMISS:          0  itACCESS:          0  itHIT:          0  itMISS:          0  dtACCESS:          0  dtHIT:          0  dtMISS:          0
cpu0_DTLB TRANSLATION  ACCESS:          0  HIT:          0  MISS:          0  iACCESS:          0  iHIT:          0  iMISS:          0  dACCESS:          0  dHIT:          0  dMISS:          0  itACCESS:          0  itHIT:          0  itMISS:          0  dtACCESS:          0  dtHIT:          0  dtMISS:          0
cpu0_DTLB PREFETCH  REQUESTED:          0  ISSUED:          0  CROSSED:          0  USEFUL:          0  USELESS:          0
cpu0_DTLB AVERAGE iMISS LATENCY: 0 cycles
cpu0_DTLB AVERAGE dMISS LATENCY: 10.4552 cycles
cpu0_DTLB AVERAGE itMISS LATENCY: 0 cycles
cpu0_DTLB AVERAGE dtMISS LATENCY: 0 cycles
cpu0_DTLB PAGE CROSSINGS (TLB HIT):         0 
cpu0_DTLB PAGE CROSSINGS (TLB MISS):         0 
cpu0_DTLB AVERAGE MISS LATENCY: 10.4552 cycles
cpu0_STLB TOTAL       ACCESS:    1637190  HIT:    1502453  MISS:     134737  iACCESS:     388264  iHIT:     382022  iMISS:       6242  dACCESS:    1248926  dHIT:    1120431  dMISS:     128495  itACCESS:          0  itHIT:          0  itMISS:          0  dtACCESS:          0  dtHIT:          0  dtMISS:          0
cpu0_STLB LOAD         ACCESS:    1637190  HIT:    1502453  MISS:     134737  iACCESS:     388264  iHIT:     382022  iMISS:       6242  dACCESS:    1248926  dHIT:    1120431  dMISS:     128495  itACCESS:          0  itHIT:          0  itMISS:          0  dtACCESS:          0  dtHIT:          0  dtMISS:          0
cpu0_STLB RFO          ACCESS:          0  HIT:          0  MISS:          0  iACCESS:          0  iHIT:          0  iMISS:          0  dACCESS:          0  dHIT:          0  dMISS:          0  itACCESS:          0  itHIT:          0  itMISS:          0  dtACCESS:          0  dtHIT:          0  dtMISS:          0
cpu0_STLB PREFETCH     ACCESS:          0  HIT:          0  MISS:          0  iACCESS:          0  iHIT:          0  iMISS:          0  dACCESS:          0  dHIT:          0  dMISS:          0  itACCESS:          0  itHIT:          0  itMISS:          0  dtACCESS:          0  dtHIT:          0  dtMISS:          0
cpu0_STLB WRITE        ACCESS:          0  HIT:          0  MISS:          0  iACCESS:          0  iHIT:          0  iMISS:          0  dACCESS:          0  dHIT:          0  dMISS:          0  itACCESS:          0  itHIT:          0  itMISS:          0  dtACCESS:          0  dtHIT:          0  dtMISS:          0
cpu0_STLB TRANSLATION  ACCESS:          0  HIT:          0  MISS:          0  iACCESS:          0  iHIT:          0  iMISS:          0  dACCESS:          0  dHIT:          0  dMISS:          0  itACCESS:          0  itHIT:          0  itMISS:          0  dtACCESS:          0  dtHIT:          0  dtMISS:          0
cpu0_STLB PREFETCH  REQUESTED:          0  ISSUED:          0  CROSSED:          0  USEFUL:          0  USELESS:          0
cpu0_STLB AVERAGE iMISS LATENCY: 4.77373 cycles
cpu0_STLB AVERAGE dMISS LATENCY: 84.2239 cycles
cpu0_STLB AVERAGE itMISS LATENCY: 0 cycles
cpu0_STLB AVERAGE dtMISS LATENCY: 0 cycles
cpu0_STLB PAGE CROSSINGS (TLB HIT):         0 
cpu0_STLB PAGE CROSSINGS (TLB MISS):         0 
cpu0_STLB AVERAGE MISS LATENCY: 88.9976 cycles
cpu0_L1D TOTAL       ACCESS:   41531299  HIT:   37940930  MISS:    3590369  iACCESS:          0  iHIT:          0  iMISS:          0  dACCESS:   41328441  dHIT:   37928282  dMISS:    3400159  itACCESS:       7286  itHIT:        687  itMISS:       6599  dtACCESS:     195572  dtHIT:      11961  dtMISS:     183611
cpu0_L1D LOAD         ACCESS:   18962433  HIT:   17406718  MISS:    1555715  iACCESS:          0  iHIT:          0  iMISS:          0  dACCESS:   18962433  dHIT:   17406718  dMISS:    1555715  itACCESS:          0  itHIT:          0  itMISS:          0  dtACCESS:          0  dtHIT:          0  dtMISS:          0
cpu0_L1D RFO          ACCESS:          0  HIT:          0  MISS:          0  iACCESS:          0  iHIT:          0  iMISS:          0  dACCESS:          0  dHIT:          0  dMISS:          0  itACCESS:          0  itHIT:          0  itMISS:          0  dtACCESS:          0  dtHIT:          0  dtMISS:          0
cpu0_L1D PREFETCH     ACCESS:   12203656  HIT:   10797487  MISS:    1406169  iACCESS:          0  iHIT:          0  iMISS:          0  dACCESS:   12203656  dHIT:   10797487  dMISS:    1406169  itACCESS:          0  itHIT:          0  itMISS:          0  dtACCESS:          0  dtHIT:          0  dtMISS:          0
cpu0_L1D WRITE        ACCESS:   10162352  HIT:    9724077  MISS:     438275  iACCESS:          0  iHIT:          0  iMISS:          0  dACCESS:   10162352  dHIT:    9724077  dMISS:     438275  itACCESS:          0  itHIT:          0  itMISS:          0  dtACCESS:          0  dtHIT:          0  dtMISS:          0
cpu0_L1D TRANSLATION  ACCESS:     202858  HIT:      12648  MISS:     190210  iACCESS:          0  iHIT:          0  iMISS:          0  dACCESS:          0  dHIT:          0  dMISS:          0  itACCESS:       7286  itHIT:        687  itMISS:       6599  dtACCESS:     195572  dtHIT:      11961  dtMISS:     183611
cpu0_L1D PREFETCH  REQUESTED:   18962433  ISSUED:   16991169  CROSSED:          0  USEFUL:     309630  USELESS:     704342
cpu0_L1D AVERAGE iMISS LATENCY: 0 cycles
cpu0_L1D AVERAGE dMISS LATENCY: 27.9647 cycles
cpu0_L1D AVERAGE itMISS LATENCY: 0.16123 cycles
cpu0_L1D AVERAGE dtMISS LATENCY: 2.47369 cycles
cpu0_L1D PAGE CROSSINGS (TLB HIT):         0 
cpu0_L1D PAGE CROSSINGS (TLB MISS):         0 
cpu0_L1D AVERAGE MISS LATENCY: 30.5996 cycles
cpu0_L2C TOTAL       ACCESS:    6997157  HIT:    2604601  MISS:    4392556  iACCESS:    3323017  iHIT:    1461804  iMISS:    1861213  dACCESS:    3496142  dHIT:    1021345  dMISS:    2474797  itACCESS:       6599  itHIT:       2389  itMISS:       4210  dtACCESS:     171399  dtHIT:     119063  dtMISS:      52336
cpu0_L2C LOAD         ACCESS:    1729747  HIT:     585105  MISS:    1144642  iACCESS:     791444  iHIT:     328676  iMISS:     462768  dACCESS:     938303  dHIT:     256429  dMISS:     681874  itACCESS:          0  itHIT:          0  itMISS:          0  dtACCESS:          0  dtHIT:          0  dtMISS:          0
cpu0_L2C RFO          ACCESS:     155866  HIT:      35330  MISS:     120536  iACCESS:          0  iHIT:          0  iMISS:          0  dACCESS:     155866  dHIT:      35330  dMISS:     120536  itACCESS:          0  itHIT:          0  itMISS:          0  dtACCESS:          0  dtHIT:          0  dtMISS:          0
cpu0_L2C PREFETCH     ACCESS:    4649459  HIT:    1739253  MISS:    2910206  iACCESS:    2531573  iHIT:    1133128  iMISS:    1398445  dACCESS:    2117886  dHIT:     606125  dMISS:    1511761  itACCESS:          0  itHIT:          0  itMISS:          0  dtACCESS:          0  dtHIT:          0  dtMISS:          0
cpu0_L2C WRITE        ACCESS:     284087  HIT:     123461  MISS:     160626  iACCESS:          0  iHIT:          0  iMISS:          0  dACCESS:     284087  dHIT:     123461  dMISS:     160626  itACCESS:          0  itHIT:          0  itMISS:          0  dtACCESS:          0  dtHIT:          0  dtMISS:          0
cpu0_L2C TRANSLATION  ACCESS:     177998  HIT:     121452  MISS:      56546  iACCESS:          0  iHIT:          0  iMISS:          0  dACCESS:          0  dHIT:          0  dMISS:          0  itACCESS:       6599  itHIT:       2389  itMISS:       4210  dtACCESS:     171399  dtHIT:     119063  dtMISS:      52336
cpu0_L2C PREFETCH  REQUESTED:    1383846  ISSUED:    1383846  CROSSED:          0  USEFUL:     357714  USELESS:     332418
cpu0_L2C AVERAGE iMISS LATENCY: 13.2712 cycles
cpu0_L2C AVERAGE dMISS LATENCY: 24.8867 cycles
cpu0_L2C AVERAGE itMISS LATENCY: 0.117272 cycles
cpu0_L2C AVERAGE dtMISS LATENCY: 1.65659 cycles
cpu0_L2C PAGE CROSSINGS (TLB HIT):         0 
cpu0_L2C PAGE CROSSINGS (TLB MISS):         0 
cpu0_L2C AVERAGE MISS LATENCY: 39.9317 cycles
LLC TOTAL       ACCESS:    4350562  HIT:    3762223  MISS:     588339  iACCESS:    1816351  iHIT:    1663713  iMISS:     152638  dACCESS:    2477665  dHIT:    2080231  dMISS:     397434  itACCESS:       4210  itHIT:       1752  itMISS:       2458  dtACCESS:      52336  dtHIT:      16527  dtMISS:      35809
LLC LOAD         ACCESS:    1142413  HIT:    1006898  MISS:     135515  iACCESS:     461443  iHIT:     427222  iMISS:      34221  dACCESS:     680970  dHIT:     579676  dMISS:     101294  itACCESS:          0  itHIT:          0  itMISS:          0  dtACCESS:          0  dtHIT:          0  dtMISS:          0
LLC RFO          ACCESS:     120533  HIT:      87936  MISS:      32597  iACCESS:          0  iHIT:          0  iMISS:          0  dACCESS:     120533  dHIT:      87936  dMISS:      32597  itACCESS:          0  itHIT:          0  itMISS:          0  dtACCESS:          0  dtHIT:          0  dtMISS:          0
LLC PREFETCH     ACCESS:    2826805  HIT:    2446649  MISS:     380156  iACCESS:    1354908  iHIT:    1236491  iMISS:     118417  dACCESS:    1471897  dHIT:    1210158  dMISS:     261739  itACCESS:          0  itHIT:          0  itMISS:          0  dtACCESS:          0  dtHIT:          0  dtMISS:          0
LLC WRITE        ACCESS:     204265  HIT:     202461  MISS:       1804  iACCESS:          0  iHIT:          0  iMISS:          0  dACCESS:     204265  dHIT:     202461  dMISS:       1804  itACCESS:          0  itHIT:          0  itMISS:          0  dtACCESS:          0  dtHIT:          0  dtMISS:          0
LLC TRANSLATION  ACCESS:      56546  HIT:      18279  MISS:      38267  iACCESS:          0  iHIT:          0  iMISS:          0  dACCESS:          0  dHIT:          0  dMISS:          0  itACCESS:       4210  itHIT:       1752  itMISS:       2458  dtACCESS:      52336  dtHIT:      16527  dtMISS:      35809
LLC PREFETCH  REQUESTED:          0  ISSUED:          0  CROSSED:          0  USEFUL:          0  USELESS:          0
LLC AVERAGE iMISS LATENCY: 39.6292 cycles
LLC AVERAGE dMISS LATENCY: 111.204 cycles
LLC AVERAGE itMISS LATENCY: 0.735789 cycles
LLC AVERAGE dtMISS LATENCY: 10.6209 cycles
LLC PAGE CROSSINGS (TLB HIT):         0 
LLC PAGE CROSSINGS (TLB MISS):         0 
LLC AVERAGE MISS LATENCY: 162.19 cycles

PageTableWalker TOTAL       ACCESS:      67906  
PageTableWalker AVERAGE LATENCY: 4.77271 cycles
PageTableWalker TOTAL LATENCY: 324095 cycles

DRAM Statistics
Channel 0
 RQ ROW_BUFFER_HIT:     144938
  ROW_BUFFER_MISS:     441067
 AVG DBUS CONGESTED CYCLE:    3.64883
 WQ ROW_BUFFER_HIT:      14714
  ROW_BUFFER_MISS:      28580  FULL:          0

