last_page:0x200000000000000
VMEM_RES_CAP:0x100000
PAGE_SIZE:4096
LOG2_PAGE_SIZE:12
LOG2_PAGE_TABLE_SIZE:9
page_table_levels:5
WARNING: physical memory size is smaller than virtual memory size
FDiP enabled with aggresivity 16

*** ChampSim Multicore Out-of-Order Simulator ***

Warmup Instructions: 50000000
Simulation Instructions: 100000000
Number of CPUs: 1
Small page size: 4096
Large page size: 2097152

CPU 0 Bimodal branch predictor
Basic BTB sets: 1024 ways: 8 indirect buffer size: 4096 RAS size: 64
Instruction page size distrubution: 0
Loading instruction page size distribution from /home/bsc/bsc018186/scratch/itp_asplos25_AE/dump/srv566_ap.pdst
Data page size distrubution: 0
Loading data page size distribution from /home/bsc/bsc018186/scratch/itp_asplos25_AE/dump/srv566_ap.pdst
cpu0_L2C IP-based stride prefetcher
cpu0_L2C is using PTP replacement policy:
	TLB_STRESS_THRESHOLD:0
	PTE_EVICTION_RATIO:0
cpu0_L1D next line prefetcher
cpu0_L1I next line prefetcher
Off-chip DRAM Size: 4 GiB Channels: 1 Width: 64-bit Data Rate: 3200 MT/s
Heartbeat CPU 0 instructions: 10000002 cycles: 2500220 heartbeat IPC: 3.99965 cumulative IPC: 3.99965 (Simulation time: 0 hr 0 min 37 sec) 
Heartbeat CPU 0 instructions: 20000002 cycles: 5000253 heartbeat IPC: 3.99995 cumulative IPC: 3.9998 (Simulation time: 0 hr 1 min 17 sec) 
Heartbeat CPU 0 instructions: 30000002 cycles: 7500287 heartbeat IPC: 3.99995 cumulative IPC: 3.99985 (Simulation time: 0 hr 1 min 57 sec) 
Heartbeat CPU 0 instructions: 40000001 cycles: 10000297 heartbeat IPC: 3.99999 cumulative IPC: 3.99989 (Simulation time: 0 hr 2 min 38 sec) 
Heartbeat CPU 0 instructions: 50000003 cycles: 12500312 heartbeat IPC: 3.99998 cumulative IPC: 3.99991 (Simulation time: 0 hr 3 min 19 sec) 
Warmup finished CPU 0 instructions: 50000003 cycles: 12500313 cumulative IPC: 3.99991 (Simulation time: 0 hr 3 min 19 sec) 

Warmup complete CPU 0 instructions: 50000003 cycles: 12500313 (Simulation time: 0 hr 3 min 19 sec) 

Heartbeat CPU 0 instructions: 60000000 cycles: 27184663 heartbeat IPC: 0.680997 cumulative IPC: 0.680997 (Simulation time: 0 hr 4 min 25 sec) 
Heartbeat CPU 0 instructions: 70000002 cycles: 41612923 heartbeat IPC: 0.693085 cumulative IPC: 0.686988 (Simulation time: 0 hr 5 min 30 sec) 
Heartbeat CPU 0 instructions: 80000001 cycles: 55151675 heartbeat IPC: 0.738621 cumulative IPC: 0.703378 (Simulation time: 0 hr 6 min 34 sec) 
Heartbeat CPU 0 instructions: 90000003 cycles: 69121201 heartbeat IPC: 0.715845 cumulative IPC: 0.706454 (Simulation time: 0 hr 7 min 38 sec) 
Heartbeat CPU 0 instructions: 100000001 cycles: 83120422 heartbeat IPC: 0.714326 cumulative IPC: 0.708014 (Simulation time: 0 hr 8 min 42 sec) 
*** Reached end of trace: /gpfs/projects/bsc18/MN4/bsc18/romol/ChampSim/traces/qualcomm_srv/srv566_ap.champsimtrace.xz
Heartbeat CPU 0 instructions: 110000000 cycles: 96947899 heartbeat IPC: 0.723198 cumulative IPC: 0.7105 (Simulation time: 0 hr 9 min 46 sec) 
Heartbeat CPU 0 instructions: 120000001 cycles: 110446491 heartbeat IPC: 0.740819 cumulative IPC: 0.714679 (Simulation time: 0 hr 10 min 49 sec) 
Heartbeat CPU 0 instructions: 130000000 cycles: 124592972 heartbeat IPC: 0.70689 cumulative IPC: 0.713696 (Simulation time: 0 hr 11 min 55 sec) 
Heartbeat CPU 0 instructions: 140000001 cycles: 138640128 heartbeat IPC: 0.711888 cumulative IPC: 0.713494 (Simulation time: 0 hr 13 min 0 sec) 
Heartbeat CPU 0 instructions: 150000003 cycles: 152505747 heartbeat IPC: 0.721209 cumulative IPC: 0.714258 (Simulation time: 0 hr 14 min 5 sec) 
Simulation finished CPU 0 instructions: 100000000 cycles: 140005435 cumulative IPC: 0.714258 (Simulation time: 0 hr 14 min 5 sec) 

Simulation complete CPU 0 instructions: 100000000 cycles: 140005435 (Simulation time: 0 hr 14 min 5 sec) 


ChampSim completed all CPUs

Saving instructions large page distribution to /home/bsc/bsc018186/scratch/itp_asplos25_AE/dump/srv566_ap.pdst...
Saving data large page distribution to /home/bsc/bsc018186/scratch/itp_asplos25_AE/dump/srv566_ap.pdst...
=== Simulation ===
CPU 0 runs /gpfs/projects/bsc18/MN4/bsc18/romol/ChampSim/traces/qualcomm_srv/srv566_ap.champsimtrace.xz

Region of Interest Statistics

CPU 0 cumulative IPC: 0.714258 instructions: 100000000 cycles: 140005435
CPU 0 Branch Prediction Accuracy: 83.449% MPKI: 29.7364 Average ROB Occupancy at Mispredict: 12.1571
Branch type MPKI
BRANCH_DIRECT_JUMP: 0.948671
BRANCH_INDIRECT: 15.4368
BRANCH_CONDITIONAL: 9.7205
BRANCH_DIRECT_CALL: 1.81322
BRANCH_INDIRECT_CALL: 0.497481
BRANCH_RETURN: 1.31977

Instructions large pages: 0
Instructions small pages: 9767
Large page distribution for instructions: 0%

Data large pages: 0
Data small pages: 8906
Large page distribution for data: 0%

cpu0_L1I TOTAL       ACCESS:   35161591  HIT:   26576182  MISS:    8585409  iACCESS:   35161591  iHIT:   26576182  iMISS:    8585409  dACCESS:          0  dHIT:          0  dMISS:          0  itACCESS:          0  itHIT:          0  itMISS:          0  dtACCESS:          0  dtHIT:          0  dtMISS:          0
cpu0_L1I LOAD         ACCESS:   10238785  HIT:    7841748  MISS:    2397037  iACCESS:   10238785  iHIT:    7841748  iMISS:    2397037  dACCESS:          0  dHIT:          0  dMISS:          0  itACCESS:          0  itHIT:          0  itMISS:          0  dtACCESS:          0  dtHIT:          0  dtMISS:          0
cpu0_L1I RFO          ACCESS:          0  HIT:          0  MISS:          0  iACCESS:          0  iHIT:          0  iMISS:          0  dACCESS:          0  dHIT:          0  dMISS:          0  itACCESS:          0  itHIT:          0  itMISS:          0  dtACCESS:          0  dtHIT:          0  dtMISS:          0
cpu0_L1I PREFETCH     ACCESS:   24922806  HIT:   18734434  MISS:    6188372  iACCESS:   24922806  iHIT:   18734434  iMISS:    6188372  dACCESS:          0  dHIT:          0  dMISS:          0  itACCESS:          0  itHIT:          0  itMISS:          0  dtACCESS:          0  dtHIT:          0  dtMISS:          0
cpu0_L1I WRITE        ACCESS:          0  HIT:          0  MISS:          0  iACCESS:          0  iHIT:          0  iMISS:          0  dACCESS:          0  dHIT:          0  dMISS:          0  itACCESS:          0  itHIT:          0  itMISS:          0  dtACCESS:          0  dtHIT:          0  dtMISS:          0
cpu0_L1I TRANSLATION  ACCESS:          0  HIT:          0  MISS:          0  iACCESS:          0  iHIT:          0  iMISS:          0  dACCESS:          0  dHIT:          0  dMISS:          0  itACCESS:          0  itHIT:          0  itMISS:          0  dtACCESS:          0  dtHIT:          0  dtMISS:          0
cpu0_L1I PREFETCH  REQUESTED:   27136822  ISSUED:   27133216  CROSSED:          0  USEFUL:    1933517  USELESS:     637512
cpu0_L1I AVERAGE iMISS LATENCY: 13.7114 cycles
cpu0_L1I AVERAGE dMISS LATENCY: 0 cycles
cpu0_L1I AVERAGE itMISS LATENCY: 0 cycles
cpu0_L1I AVERAGE dtMISS LATENCY: 0 cycles
cpu0_L1I PAGE CROSSINGS (TLB HIT):         0 
cpu0_L1I PAGE CROSSINGS (TLB MISS):         0 
cpu0_L1I AVERAGE MISS LATENCY: 13.7114 cycles
cpu0_ITLB TOTAL       ACCESS:   29051981  HIT:   27064100  MISS:    1987881  iACCESS:   29051981  iHIT:   27064100  iMISS:    1987881  dACCESS:          0  dHIT:          0  dMISS:          0  itACCESS:          0  itHIT:          0  itMISS:          0  dtACCESS:          0  dtHIT:          0  dtMISS:          0
cpu0_ITLB LOAD         ACCESS:   29051981  HIT:   27064100  MISS:    1987881  iACCESS:   29051981  iHIT:   27064100  iMISS:    1987881  dACCESS:          0  dHIT:          0  dMISS:          0  itACCESS:          0  itHIT:          0  itMISS:          0  dtACCESS:          0  dtHIT:          0  dtMISS:          0
cpu0_ITLB RFO          ACCESS:          0  HIT:          0  MISS:          0  iACCESS:          0  iHIT:          0  iMISS:          0  dACCESS:          0  dHIT:          0  dMISS:          0  itACCESS:          0  itHIT:          0  itMISS:          0  dtACCESS:          0  dtHIT:          0  dtMISS:          0
cpu0_ITLB PREFETCH     ACCESS:          0  HIT:          0  MISS:          0  iACCESS:          0  iHIT:          0  iMISS:          0  dACCESS:          0  dHIT:          0  dMISS:          0  itACCESS:          0  itHIT:          0  itMISS:          0  dtACCESS:          0  dtHIT:          0  dtMISS:          0
cpu0_ITLB WRITE        ACCESS:          0  HIT:          0  MISS:          0  iACCESS:          0  iHIT:          0  iMISS:          0  dACCESS:          0  dHIT:          0  dMISS:          0  itACCESS:          0  itHIT:          0  itMISS:          0  dtACCESS:          0  dtHIT:          0  dtMISS:          0
cpu0_ITLB TRANSLATION  ACCESS:          0  HIT:          0  MISS:          0  iACCESS:          0  iHIT:          0  iMISS:          0  dACCESS:          0  dHIT:          0  dMISS:          0  itACCESS:          0  itHIT:          0  itMISS:          0  dtACCESS:          0  dtHIT:          0  dtMISS:          0
cpu0_ITLB PREFETCH  REQUESTED:          0  ISSUED:          0  CROSSED:          0  USEFUL:     326094  USELESS:      62206
cpu0_ITLB AVERAGE iMISS LATENCY: 2.59011 cycles
cpu0_ITLB AVERAGE dMISS LATENCY: 0 cycles
cpu0_ITLB AVERAGE itMISS LATENCY: 0 cycles
cpu0_ITLB AVERAGE dtMISS LATENCY: 0 cycles
cpu0_ITLB PAGE CROSSINGS (TLB HIT):         0 
cpu0_ITLB PAGE CROSSINGS (TLB MISS):         0 
cpu0_ITLB AVERAGE MISS LATENCY: 2.59011 cycles
cpu0_DTLB TOTAL       ACCESS:   27700596  HIT:   25877546  MISS:    1823050  iACCESS:          0  iHIT:          0  iMISS:          0  dACCESS:   27700596  dHIT:   25877546  dMISS:    1823050  itACCESS:          0  itHIT:          0  itMISS:          0  dtACCESS:          0  dtHIT:          0  dtMISS:          0
cpu0_DTLB LOAD         ACCESS:   27700596  HIT:   25877546  MISS:    1823050  iACCESS:          0  iHIT:          0  iMISS:          0  dACCESS:   27700596  dHIT:   25877546  dMISS:    1823050  itACCESS:          0  itHIT:          0  itMISS:          0  dtACCESS:          0  dtHIT:          0  dtMISS:          0
cpu0_DTLB RFO          ACCESS:          0  HIT:          0  MISS:          0  iACCESS:          0  iHIT:          0  iMISS:          0  dACCESS:          0  dHIT:          0  dMISS:          0  itACCESS:          0  itHIT:          0  itMISS:          0  dtACCESS:          0  dtHIT:          0  dtMISS:          0
cpu0_DTLB PREFETCH     ACCESS:          0  HIT:          0  MISS:          0  iACCESS:          0  iHIT:          0  iMISS:          0  dACCESS:          0  dHIT:          0  dMISS:          0  itACCESS:          0  itHIT:          0  itMISS:          0  dtACCESS:          0  dtHIT:          0  dtMISS:          0
cpu0_DTLB WRITE        ACCESS:          0  HIT:          0  MISS:          0  iACCESS:          0  iHIT:          0  iMISS:          0  dACCESS:          0  dHIT:          0  dMISS:          0  itACCESS:          0  itHIT:          0  itMISS:          0  dtACCESS:          0  dtHIT:          0  dtMISS:          0
cpu0_DTLB TRANSLATION  ACCESS:          0  HIT:          0  MISS:          0  iACCESS:          0  iHIT:          0  iMISS:          0  dACCESS:          0  dHIT:          0  dMISS:          0  itACCESS:          0  itHIT:          0  itMISS:          0  dtACCESS:          0  dtHIT:          0  dtMISS:          0
cpu0_DTLB PREFETCH  REQUESTED:          0  ISSUED:          0  CROSSED:          0  USEFUL:          0  USELESS:          0
cpu0_DTLB AVERAGE iMISS LATENCY: 0 cycles
cpu0_DTLB AVERAGE dMISS LATENCY: 8.97861 cycles
cpu0_DTLB AVERAGE itMISS LATENCY: 0 cycles
cpu0_DTLB AVERAGE dtMISS LATENCY: 0 cycles
cpu0_DTLB PAGE CROSSINGS (TLB HIT):         0 
cpu0_DTLB PAGE CROSSINGS (TLB MISS):         0 
cpu0_DTLB AVERAGE MISS LATENCY: 8.97861 cycles
cpu0_STLB TOTAL       ACCESS:    1511870  HIT:    1349913  MISS:     161957  iACCESS:     388373  iHIT:     331470  iMISS:      56903  dACCESS:    1123497  dHIT:    1018443  dMISS:     105054  itACCESS:          0  itHIT:          0  itMISS:          0  dtACCESS:          0  dtHIT:          0  dtMISS:          0
cpu0_STLB LOAD         ACCESS:    1511870  HIT:    1349913  MISS:     161957  iACCESS:     388373  iHIT:     331470  iMISS:      56903  dACCESS:    1123497  dHIT:    1018443  dMISS:     105054  itACCESS:          0  itHIT:          0  itMISS:          0  dtACCESS:          0  dtHIT:          0  dtMISS:          0
cpu0_STLB RFO          ACCESS:          0  HIT:          0  MISS:          0  iACCESS:          0  iHIT:          0  iMISS:          0  dACCESS:          0  dHIT:          0  dMISS:          0  itACCESS:          0  itHIT:          0  itMISS:          0  dtACCESS:          0  dtHIT:          0  dtMISS:          0
cpu0_STLB PREFETCH     ACCESS:          0  HIT:          0  MISS:          0  iACCESS:          0  iHIT:          0  iMISS:          0  dACCESS:          0  dHIT:          0  dMISS:          0  itACCESS:          0  itHIT:          0  itMISS:          0  dtACCESS:          0  dtHIT:          0  dtMISS:          0
cpu0_STLB WRITE        ACCESS:          0  HIT:          0  MISS:          0  iACCESS:          0  iHIT:          0  iMISS:          0  dACCESS:          0  dHIT:          0  dMISS:          0  itACCESS:          0  itHIT:          0  itMISS:          0  dtACCESS:          0  dtHIT:          0  dtMISS:          0
cpu0_STLB TRANSLATION  ACCESS:          0  HIT:          0  MISS:          0  iACCESS:          0  iHIT:          0  iMISS:          0  dACCESS:          0  dHIT:          0  dMISS:          0  itACCESS:          0  itHIT:          0  itMISS:          0  dtACCESS:          0  dtHIT:          0  dtMISS:          0
cpu0_STLB PREFETCH  REQUESTED:          0  ISSUED:          0  CROSSED:          0  USEFUL:          0  USELESS:          0
cpu0_STLB AVERAGE iMISS LATENCY: 12.8689 cycles
cpu0_STLB AVERAGE dMISS LATENCY: 45.7486 cycles
cpu0_STLB AVERAGE itMISS LATENCY: 0 cycles
cpu0_STLB AVERAGE dtMISS LATENCY: 0 cycles
cpu0_STLB PAGE CROSSINGS (TLB HIT):         0 
cpu0_STLB PAGE CROSSINGS (TLB MISS):         0 
cpu0_STLB AVERAGE MISS LATENCY: 58.6175 cycles
cpu0_L1D TOTAL       ACCESS:   41462890  HIT:   37918229  MISS:    3544661  iACCESS:          0  iHIT:          0  iMISS:          0  dACCESS:   41241894  dHIT:   37898734  dMISS:    3343160  itACCESS:      61712  itHIT:       9049  itMISS:      52663  dtACCESS:     159284  dtHIT:      10446  dtMISS:     148838
cpu0_L1D LOAD         ACCESS:   18955177  HIT:   17433750  MISS:    1521427  iACCESS:          0  iHIT:          0  iMISS:          0  dACCESS:   18955177  dHIT:   17433750  dMISS:    1521427  itACCESS:          0  itHIT:          0  itMISS:          0  dtACCESS:          0  dtHIT:          0  dtMISS:          0
cpu0_L1D RFO          ACCESS:          0  HIT:          0  MISS:          0  iACCESS:          0  iHIT:          0  iMISS:          0  dACCESS:          0  dHIT:          0  dMISS:          0  itACCESS:          0  itHIT:          0  itMISS:          0  dtACCESS:          0  dtHIT:          0  dtMISS:          0
cpu0_L1D PREFETCH     ACCESS:   12142513  HIT:   10762673  MISS:    1379840  iACCESS:          0  iHIT:          0  iMISS:          0  dACCESS:   12142513  dHIT:   10762673  dMISS:    1379840  itACCESS:          0  itHIT:          0  itMISS:          0  dtACCESS:          0  dtHIT:          0  dtMISS:          0
cpu0_L1D WRITE        ACCESS:   10144204  HIT:    9702311  MISS:     441893  iACCESS:          0  iHIT:          0  iMISS:          0  dACCESS:   10144204  dHIT:    9702311  dMISS:     441893  itACCESS:          0  itHIT:          0  itMISS:          0  dtACCESS:          0  dtHIT:          0  dtMISS:          0
cpu0_L1D TRANSLATION  ACCESS:     220996  HIT:      19495  MISS:     201501  iACCESS:          0  iHIT:          0  iMISS:          0  dACCESS:          0  dHIT:          0  dMISS:          0  itACCESS:      61712  itHIT:       9049  itMISS:      52663  dtACCESS:     159284  dtHIT:      10446  dtMISS:     148838
cpu0_L1D PREFETCH  REQUESTED:   18955177  ISSUED:   16920478  CROSSED:          0  USEFUL:     309518  USELESS:     702439
cpu0_L1D AVERAGE iMISS LATENCY: 0 cycles
cpu0_L1D AVERAGE dMISS LATENCY: 34.7251 cycles
cpu0_L1D AVERAGE itMISS LATENCY: 0.448377 cycles
cpu0_L1D AVERAGE dtMISS LATENCY: 1.47374 cycles
cpu0_L1D PAGE CROSSINGS (TLB HIT):         0 
cpu0_L1D PAGE CROSSINGS (TLB MISS):         0 
cpu0_L1D AVERAGE MISS LATENCY: 36.6472 cycles
cpu0_L2C TOTAL       ACCESS:    7003014  HIT:    1233201  MISS:    5769813  iACCESS:    3326390  iHIT:     702185  iMISS:    2624205  dACCESS:    3485389  dHIT:     373937  dMISS:    3111452  itACCESS:      52663  itHIT:      43967  itMISS:       8696  dtACCESS:     138572  dtHIT:     113112  dtMISS:      25460
cpu0_L2C LOAD         ACCESS:    1727622  HIT:     139500  MISS:    1588122  iACCESS:     793695  iHIT:     101969  iMISS:     691726  dACCESS:     933927  dHIT:      37531  dMISS:     896396  itACCESS:          0  itHIT:          0  itMISS:          0  dtACCESS:          0  dtHIT:          0  dtMISS:          0
cpu0_L2C RFO          ACCESS:     156018  HIT:       8153  MISS:     147865  iACCESS:          0  iHIT:          0  iMISS:          0  dACCESS:     156018  dHIT:       8153  dMISS:     147865  itACCESS:          0  itHIT:          0  itMISS:          0  dtACCESS:          0  dtHIT:          0  dtMISS:          0
cpu0_L2C PREFETCH     ACCESS:    4643712  HIT:     869136  MISS:    3774576  iACCESS:    2532695  iHIT:     600216  iMISS:    1932479  dACCESS:    2111017  dHIT:     268920  dMISS:    1842097  itACCESS:          0  itHIT:          0  itMISS:          0  dtACCESS:          0  dtHIT:          0  dtMISS:          0
cpu0_L2C WRITE        ACCESS:     284427  HIT:      59333  MISS:     225094  iACCESS:          0  iHIT:          0  iMISS:          0  dACCESS:     284427  dHIT:      59333  dMISS:     225094  itACCESS:          0  itHIT:          0  itMISS:          0  dtACCESS:          0  dtHIT:          0  dtMISS:          0
cpu0_L2C TRANSLATION  ACCESS:     191235  HIT:     157079  MISS:      34156  iACCESS:          0  iHIT:          0  iMISS:          0  dACCESS:          0  dHIT:          0  dMISS:          0  itACCESS:      52663  itHIT:      43967  itMISS:       8696  dtACCESS:     138572  dtHIT:     113112  dtMISS:      25460
cpu0_L2C PREFETCH  REQUESTED:    1385217  ISSUED:    1385217  CROSSED:          0  USEFUL:     416958  USELESS:     393781
cpu0_L2C AVERAGE iMISS LATENCY: 15.0361 cycles
cpu0_L2C AVERAGE dMISS LATENCY: 24.6446 cycles
cpu0_L2C AVERAGE itMISS LATENCY: 0.191628 cycles
cpu0_L2C AVERAGE dtMISS LATENCY: 0.683668 cycles
cpu0_L2C PAGE CROSSINGS (TLB HIT):         0 
cpu0_L2C PAGE CROSSINGS (TLB MISS):         0 
cpu0_L2C AVERAGE MISS LATENCY: 40.5559 cycles
LLC TOTAL       ACCESS:    5692761  HIT:    4874219  MISS:     818542  iACCESS:    2566347  iHIT:    2311960  iMISS:     254387  dACCESS:    3092258  dHIT:    2553180  dMISS:     539078  itACCESS:       8696  itHIT:       3286  itMISS:       5410  dtACCESS:      25460  dtHIT:       5793  dtMISS:      19667
LLC LOAD         ACCESS:    1586078  HIT:    1396777  MISS:     189301  iACCESS:     690064  iHIT:     636497  iMISS:      53567  dACCESS:     896014  dHIT:     760280  dMISS:     135734  itACCESS:          0  itHIT:          0  itMISS:          0  dtACCESS:          0  dtHIT:          0  dtMISS:          0
LLC RFO          ACCESS:     147864  HIT:     109391  MISS:      38473  iACCESS:          0  iHIT:          0  iMISS:          0  dACCESS:     147864  dHIT:     109391  dMISS:      38473  itACCESS:          0  itHIT:          0  itMISS:          0  dtACCESS:          0  dtHIT:          0  dtMISS:          0
LLC PREFETCH     ACCESS:    3666010  HIT:    3100319  MISS:     565691  iACCESS:    1876283  iHIT:    1675463  iMISS:     200820  dACCESS:    1789727  dHIT:    1424856  dMISS:     364871  itACCESS:          0  itHIT:          0  itMISS:          0  dtACCESS:          0  dtHIT:          0  dtMISS:          0
LLC WRITE        ACCESS:     258653  HIT:     258653  MISS:          0  iACCESS:          0  iHIT:          0  iMISS:          0  dACCESS:     258653  dHIT:     258653  dMISS:          0  itACCESS:          0  itHIT:          0  itMISS:          0  dtACCESS:          0  dtHIT:          0  dtMISS:          0
LLC TRANSLATION  ACCESS:      34156  HIT:       9079  MISS:      25077  iACCESS:          0  iHIT:          0  iMISS:          0  dACCESS:          0  dHIT:          0  dMISS:          0  itACCESS:       8696  itHIT:       3286  itMISS:       5410  dtACCESS:      25460  dtHIT:       5793  dtMISS:      19667
LLC PREFETCH  REQUESTED:          0  ISSUED:          0  CROSSED:          0  USEFUL:          0  USELESS:          0
LLC AVERAGE iMISS LATENCY: 45.4868 cycles
LLC AVERAGE dMISS LATENCY: 106.755 cycles
LLC AVERAGE itMISS LATENCY: 1.14279 cycles
LLC AVERAGE dtMISS LATENCY: 4.20676 cycles
LLC PAGE CROSSINGS (TLB HIT):         0 
LLC PAGE CROSSINGS (TLB MISS):         0 
LLC AVERAGE MISS LATENCY: 157.591 cycles

PageTableWalker TOTAL       ACCESS:      82596  
PageTableWalker AVERAGE LATENCY: 4.07955 cycles
PageTableWalker TOTAL LATENCY: 336954 cycles

DRAM Statistics
Channel 0
 RQ ROW_BUFFER_HIT:     231863
  ROW_BUFFER_MISS:     586614
 AVG DBUS CONGESTED CYCLE:    3.61933
 WQ ROW_BUFFER_HIT:      20597
  ROW_BUFFER_MISS:      29237  FULL:          0

