last_page:0x200000000000000
VMEM_RES_CAP:0x100000
PAGE_SIZE:4096
LOG2_PAGE_SIZE:12
LOG2_PAGE_TABLE_SIZE:9
page_table_levels:5
WARNING: physical memory size is smaller than virtual memory size
FDiP enabled with aggresivity 16

*** ChampSim Multicore Out-of-Order Simulator ***

Warmup Instructions: 50000000
Simulation Instructions: 100000000
Number of CPUs: 1
Small page size: 4096
Large page size: 2097152

CPU 0 Bimodal branch predictor
Basic BTB sets: 1024 ways: 8 indirect buffer size: 4096 RAS size: 64
Instruction page size distrubution: 0
Loading instruction page size distribution from /home/bsc/bsc018186/scratch/itp_asplos25_AE/dump/srv56_ap.pdst
Data page size distrubution: 0
Loading data page size distribution from /home/bsc/bsc018186/scratch/itp_asplos25_AE/dump/srv56_ap.pdst
cpu0_L2C IP-based stride prefetcher
cpu0_L1D next line prefetcher
cpu0_STLB using iTP with max lru@8
cpu0_STLB using iTP with instr@0 and data@2
Init sat counter with 3 bits (max:50).
cpu0_L1I next line prefetcher
Off-chip DRAM Size: 4 GiB Channels: 1 Width: 64-bit Data Rate: 3200 MT/s
Heartbeat CPU 0 instructions: 10000003 cycles: 2500267 heartbeat IPC: 3.99958 cumulative IPC: 3.99958 (Simulation time: 0 hr 0 min 38 sec) 
Heartbeat CPU 0 instructions: 20000002 cycles: 5000325 heartbeat IPC: 3.99991 cumulative IPC: 3.99975 (Simulation time: 0 hr 1 min 18 sec) 
Heartbeat CPU 0 instructions: 30000000 cycles: 7500369 heartbeat IPC: 3.99993 cumulative IPC: 3.99981 (Simulation time: 0 hr 1 min 59 sec) 
Heartbeat CPU 0 instructions: 40000002 cycles: 10000534 heartbeat IPC: 3.99974 cumulative IPC: 3.99979 (Simulation time: 0 hr 2 min 39 sec) 
Heartbeat CPU 0 instructions: 50000002 cycles: 12500584 heartbeat IPC: 3.99993 cumulative IPC: 3.99982 (Simulation time: 0 hr 3 min 20 sec) 
Warmup finished CPU 0 instructions: 50000002 cycles: 12500585 cumulative IPC: 3.99982 (Simulation time: 0 hr 3 min 20 sec) 

Warmup complete CPU 0 instructions: 50000002 cycles: 12500585 (Simulation time: 0 hr 3 min 20 sec) 

Heartbeat CPU 0 instructions: 60000000 cycles: 26844796 heartbeat IPC: 0.697146 cumulative IPC: 0.697146 (Simulation time: 0 hr 4 min 24 sec) 
Heartbeat CPU 0 instructions: 70000000 cycles: 40982143 heartbeat IPC: 0.707347 cumulative IPC: 0.702209 (Simulation time: 0 hr 5 min 28 sec) 
Heartbeat CPU 0 instructions: 80000004 cycles: 55506520 heartbeat IPC: 0.688498 cumulative IPC: 0.697579 (Simulation time: 0 hr 6 min 32 sec) 
Heartbeat CPU 0 instructions: 90000000 cycles: 70000266 heartbeat IPC: 0.689953 cumulative IPC: 0.695656 (Simulation time: 0 hr 7 min 36 sec) 
Heartbeat CPU 0 instructions: 100000001 cycles: 83759732 heartbeat IPC: 0.726773 cumulative IPC: 0.701665 (Simulation time: 0 hr 8 min 39 sec) 
*** Reached end of trace: /gpfs/projects/bsc18/MN4/bsc18/romol/ChampSim/traces/qualcomm_srv/srv56_ap.champsimtrace.xz
Heartbeat CPU 0 instructions: 110000001 cycles: 98164025 heartbeat IPC: 0.694238 cumulative IPC: 0.700416 (Simulation time: 0 hr 9 min 43 sec) 
Heartbeat CPU 0 instructions: 120000000 cycles: 111970354 heartbeat IPC: 0.724306 cumulative IPC: 0.703732 (Simulation time: 0 hr 10 min 46 sec) 
Heartbeat CPU 0 instructions: 130000000 cycles: 125813407 heartbeat IPC: 0.722385 cumulative IPC: 0.706011 (Simulation time: 0 hr 11 min 48 sec) 
Heartbeat CPU 0 instructions: 140000003 cycles: 141163551 heartbeat IPC: 0.65146 cumulative IPC: 0.699502 (Simulation time: 0 hr 12 min 51 sec) 
Heartbeat CPU 0 instructions: 150000002 cycles: 155283225 heartbeat IPC: 0.708232 cumulative IPC: 0.700366 (Simulation time: 0 hr 13 min 51 sec) 
Simulation finished CPU 0 instructions: 100000000 cycles: 142782641 cumulative IPC: 0.700366 (Simulation time: 0 hr 13 min 51 sec) 

Simulation complete CPU 0 instructions: 100000000 cycles: 142782641 (Simulation time: 0 hr 13 min 51 sec) 


ChampSim completed all CPUs

Saving instructions large page distribution to /home/bsc/bsc018186/scratch/itp_asplos25_AE/dump/srv56_ap.pdst...
Saving data large page distribution to /home/bsc/bsc018186/scratch/itp_asplos25_AE/dump/srv56_ap.pdst...
=== Simulation ===
CPU 0 runs /gpfs/projects/bsc18/MN4/bsc18/romol/ChampSim/traces/qualcomm_srv/srv56_ap.champsimtrace.xz

Region of Interest Statistics

CPU 0 cumulative IPC: 0.700366 instructions: 100000000 cycles: 142782641
CPU 0 Branch Prediction Accuracy: 82.5083% MPKI: 31.3359 Average ROB Occupancy at Mispredict: 12.9293
Branch type MPKI
BRANCH_DIRECT_JUMP: 1.06979
BRANCH_INDIRECT: 16.1898
BRANCH_CONDITIONAL: 10.2461
BRANCH_DIRECT_CALL: 1.92884
BRANCH_INDIRECT_CALL: 0.516391
BRANCH_RETURN: 1.38512

Instructions large pages: 0
Instructions small pages: 10539
Large page distribution for instructions: 0%

Data large pages: 0
Data small pages: 9572
Large page distribution for data: 0%

cpu0_L1I TOTAL       ACCESS:   35624884  HIT:   27279878  MISS:    8345006  iACCESS:   35624884  iHIT:   27279878  iMISS:    8345006  dACCESS:          0  dHIT:          0  dMISS:          0  itACCESS:          0  itHIT:          0  itMISS:          0  dtACCESS:          0  dtHIT:          0  dtMISS:          0
cpu0_L1I LOAD         ACCESS:   10433729  HIT:    8105759  MISS:    2327970  iACCESS:   10433729  iHIT:    8105759  iMISS:    2327970  dACCESS:          0  dHIT:          0  dMISS:          0  itACCESS:          0  itHIT:          0  itMISS:          0  dtACCESS:          0  dtHIT:          0  dtMISS:          0
cpu0_L1I RFO          ACCESS:          0  HIT:          0  MISS:          0  iACCESS:          0  iHIT:          0  iMISS:          0  dACCESS:          0  dHIT:          0  dMISS:          0  itACCESS:          0  itHIT:          0  itMISS:          0  dtACCESS:          0  dtHIT:          0  dtMISS:          0
cpu0_L1I PREFETCH     ACCESS:   25191155  HIT:   19174119  MISS:    6017036  iACCESS:   25191155  iHIT:   19174119  iMISS:    6017036  dACCESS:          0  dHIT:          0  dMISS:          0  itACCESS:          0  itHIT:          0  itMISS:          0  dtACCESS:          0  dtHIT:          0  dtMISS:          0
cpu0_L1I WRITE        ACCESS:          0  HIT:          0  MISS:          0  iACCESS:          0  iHIT:          0  iMISS:          0  dACCESS:          0  dHIT:          0  dMISS:          0  itACCESS:          0  itHIT:          0  itMISS:          0  dtACCESS:          0  dtHIT:          0  dtMISS:          0
cpu0_L1I TRANSLATION  ACCESS:          0  HIT:          0  MISS:          0  iACCESS:          0  iHIT:          0  iMISS:          0  dACCESS:          0  dHIT:          0  dMISS:          0  itACCESS:          0  itHIT:          0  itMISS:          0  dtACCESS:          0  dtHIT:          0  dtMISS:          0
cpu0_L1I PREFETCH  REQUESTED:   27511885  ISSUED:   27509739  CROSSED:          0  USEFUL:    1944647  USELESS:     625691
cpu0_L1I AVERAGE iMISS LATENCY: 13.4224 cycles
cpu0_L1I AVERAGE dMISS LATENCY: 0 cycles
cpu0_L1I AVERAGE itMISS LATENCY: 0 cycles
cpu0_L1I AVERAGE dtMISS LATENCY: 0 cycles
cpu0_L1I PAGE CROSSINGS (TLB HIT):         0 
cpu0_L1I PAGE CROSSINGS (TLB MISS):         0 
cpu0_L1I AVERAGE MISS LATENCY: 13.4224 cycles
cpu0_ITLB TOTAL       ACCESS:   29490441  HIT:   27576498  MISS:    1913943  iACCESS:   29490441  iHIT:   27576498  iMISS:    1913943  dACCESS:          0  dHIT:          0  dMISS:          0  itACCESS:          0  itHIT:          0  itMISS:          0  dtACCESS:          0  dtHIT:          0  dtMISS:          0
cpu0_ITLB LOAD         ACCESS:   29490441  HIT:   27576498  MISS:    1913943  iACCESS:   29490441  iHIT:   27576498  iMISS:    1913943  dACCESS:          0  dHIT:          0  dMISS:          0  itACCESS:          0  itHIT:          0  itMISS:          0  dtACCESS:          0  dtHIT:          0  dtMISS:          0
cpu0_ITLB RFO          ACCESS:          0  HIT:          0  MISS:          0  iACCESS:          0  iHIT:          0  iMISS:          0  dACCESS:          0  dHIT:          0  dMISS:          0  itACCESS:          0  itHIT:          0  itMISS:          0  dtACCESS:          0  dtHIT:          0  dtMISS:          0
cpu0_ITLB PREFETCH     ACCESS:          0  HIT:          0  MISS:          0  iACCESS:          0  iHIT:          0  iMISS:          0  dACCESS:          0  dHIT:          0  dMISS:          0  itACCESS:          0  itHIT:          0  itMISS:          0  dtACCESS:          0  dtHIT:          0  dtMISS:          0
cpu0_ITLB WRITE        ACCESS:          0  HIT:          0  MISS:          0  iACCESS:          0  iHIT:          0  iMISS:          0  dACCESS:          0  dHIT:          0  dMISS:          0  itACCESS:          0  itHIT:          0  itMISS:          0  dtACCESS:          0  dtHIT:          0  dtMISS:          0
cpu0_ITLB TRANSLATION  ACCESS:          0  HIT:          0  MISS:          0  iACCESS:          0  iHIT:          0  iMISS:          0  dACCESS:          0  dHIT:          0  dMISS:          0  itACCESS:          0  itHIT:          0  itMISS:          0  dtACCESS:          0  dtHIT:          0  dtMISS:          0
cpu0_ITLB PREFETCH  REQUESTED:          0  ISSUED:          0  CROSSED:          0  USEFUL:     317402  USELESS:      62864
cpu0_ITLB AVERAGE iMISS LATENCY: 1.97224 cycles
cpu0_ITLB AVERAGE dMISS LATENCY: 0 cycles
cpu0_ITLB AVERAGE itMISS LATENCY: 0 cycles
cpu0_ITLB AVERAGE dtMISS LATENCY: 0 cycles
cpu0_ITLB PAGE CROSSINGS (TLB HIT):         0 
cpu0_ITLB PAGE CROSSINGS (TLB MISS):         0 
cpu0_ITLB AVERAGE MISS LATENCY: 1.97224 cycles
cpu0_DTLB TOTAL       ACCESS:   27916664  HIT:   26062012  MISS:    1854652  iACCESS:          0  iHIT:          0  iMISS:          0  dACCESS:   27916664  dHIT:   26062012  dMISS:    1854652  itACCESS:          0  itHIT:          0  itMISS:          0  dtACCESS:          0  dtHIT:          0  dtMISS:          0
cpu0_DTLB LOAD         ACCESS:   27916664  HIT:   26062012  MISS:    1854652  iACCESS:          0  iHIT:          0  iMISS:          0  dACCESS:   27916664  dHIT:   26062012  dMISS:    1854652  itACCESS:          0  itHIT:          0  itMISS:          0  dtACCESS:          0  dtHIT:          0  dtMISS:          0
cpu0_DTLB RFO          ACCESS:          0  HIT:          0  MISS:          0  iACCESS:          0  iHIT:          0  iMISS:          0  dACCESS:          0  dHIT:          0  dMISS:          0  itACCESS:          0  itHIT:          0  itMISS:          0  dtACCESS:          0  dtHIT:          0  dtMISS:          0
cpu0_DTLB PREFETCH     ACCESS:          0  HIT:          0  MISS:          0  iACCESS:          0  iHIT:          0  iMISS:          0  dACCESS:          0  dHIT:          0  dMISS:          0  itACCESS:          0  itHIT:          0  itMISS:          0  dtACCESS:          0  dtHIT:          0  dtMISS:          0
cpu0_DTLB WRITE        ACCESS:          0  HIT:          0  MISS:          0  iACCESS:          0  iHIT:          0  iMISS:          0  dACCESS:          0  dHIT:          0  dMISS:          0  itACCESS:          0  itHIT:          0  itMISS:          0  dtACCESS:          0  dtHIT:          0  dtMISS:          0
cpu0_DTLB TRANSLATION  ACCESS:          0  HIT:          0  MISS:          0  iACCESS:          0  iHIT:          0  iMISS:          0  dACCESS:          0  dHIT:          0  dMISS:          0  itACCESS:          0  itHIT:          0  itMISS:          0  dtACCESS:          0  dtHIT:          0  dtMISS:          0
cpu0_DTLB PREFETCH  REQUESTED:          0  ISSUED:          0  CROSSED:          0  USEFUL:          0  USELESS:          0
cpu0_DTLB AVERAGE iMISS LATENCY: 0 cycles
cpu0_DTLB AVERAGE dMISS LATENCY: 11.8846 cycles
cpu0_DTLB AVERAGE itMISS LATENCY: 0 cycles
cpu0_DTLB AVERAGE dtMISS LATENCY: 0 cycles
cpu0_DTLB PAGE CROSSINGS (TLB HIT):         0 
cpu0_DTLB PAGE CROSSINGS (TLB MISS):         0 
cpu0_DTLB AVERAGE MISS LATENCY: 11.8846 cycles
cpu0_STLB TOTAL       ACCESS:    1526487  HIT:    1381121  MISS:     145366  iACCESS:     380275  iHIT:     371942  iMISS:       8333  dACCESS:    1146212  dHIT:    1009179  dMISS:     137033  itACCESS:          0  itHIT:          0  itMISS:          0  dtACCESS:          0  dtHIT:          0  dtMISS:          0
cpu0_STLB LOAD         ACCESS:    1526487  HIT:    1381121  MISS:     145366  iACCESS:     380275  iHIT:     371942  iMISS:       8333  dACCESS:    1146212  dHIT:    1009179  dMISS:     137033  itACCESS:          0  itHIT:          0  itMISS:          0  dtACCESS:          0  dtHIT:          0  dtMISS:          0
cpu0_STLB RFO          ACCESS:          0  HIT:          0  MISS:          0  iACCESS:          0  iHIT:          0  iMISS:          0  dACCESS:          0  dHIT:          0  dMISS:          0  itACCESS:          0  itHIT:          0  itMISS:          0  dtACCESS:          0  dtHIT:          0  dtMISS:          0
cpu0_STLB PREFETCH     ACCESS:          0  HIT:          0  MISS:          0  iACCESS:          0  iHIT:          0  iMISS:          0  dACCESS:          0  dHIT:          0  dMISS:          0  itACCESS:          0  itHIT:          0  itMISS:          0  dtACCESS:          0  dtHIT:          0  dtMISS:          0
cpu0_STLB WRITE        ACCESS:          0  HIT:          0  MISS:          0  iACCESS:          0  iHIT:          0  iMISS:          0  dACCESS:          0  dHIT:          0  dMISS:          0  itACCESS:          0  itHIT:          0  itMISS:          0  dtACCESS:          0  dtHIT:          0  dtMISS:          0
cpu0_STLB TRANSLATION  ACCESS:          0  HIT:          0  MISS:          0  iACCESS:          0  iHIT:          0  iMISS:          0  dACCESS:          0  dHIT:          0  dMISS:          0  itACCESS:          0  itHIT:          0  itMISS:          0  dtACCESS:          0  dtHIT:          0  dtMISS:          0
cpu0_STLB PREFETCH  REQUESTED:          0  ISSUED:          0  CROSSED:          0  USEFUL:          0  USELESS:          0
cpu0_STLB AVERAGE iMISS LATENCY: 5.70309 cycles
cpu0_STLB AVERAGE dMISS LATENCY: 88.4982 cycles
cpu0_STLB AVERAGE itMISS LATENCY: 0 cycles
cpu0_STLB AVERAGE dtMISS LATENCY: 0 cycles
cpu0_STLB PAGE CROSSINGS (TLB HIT):         0 
cpu0_STLB PAGE CROSSINGS (TLB MISS):         0 
cpu0_STLB AVERAGE MISS LATENCY: 94.2013 cycles
cpu0_L1D TOTAL       ACCESS:   41702017  HIT:   38205940  MISS:    3496077  iACCESS:          0  iHIT:          0  iMISS:          0  dACCESS:   41482954  dHIT:   38192465  dMISS:    3290489  itACCESS:       9892  itHIT:       1005  itMISS:       8887  dtACCESS:     209171  dtHIT:      12470  dtMISS:     196701
cpu0_L1D LOAD         ACCESS:   19137286  HIT:   17636776  MISS:    1500510  iACCESS:          0  iHIT:          0  iMISS:          0  dACCESS:   19137286  dHIT:   17636776  dMISS:    1500510  itACCESS:          0  itHIT:          0  itMISS:          0  dtACCESS:          0  dtHIT:          0  dtMISS:          0
cpu0_L1D RFO          ACCESS:          0  HIT:          0  MISS:          0  iACCESS:          0  iHIT:          0  iMISS:          0  dACCESS:          0  dHIT:          0  dMISS:          0  itACCESS:          0  itHIT:          0  itMISS:          0  dtACCESS:          0  dtHIT:          0  dtMISS:          0
cpu0_L1D PREFETCH     ACCESS:   12168453  HIT:   10796032  MISS:    1372421  iACCESS:          0  iHIT:          0  iMISS:          0  dACCESS:   12168453  dHIT:   10796032  dMISS:    1372421  itACCESS:          0  itHIT:          0  itMISS:          0  dtACCESS:          0  dtHIT:          0  dtMISS:          0
cpu0_L1D WRITE        ACCESS:   10177215  HIT:    9759657  MISS:     417558  iACCESS:          0  iHIT:          0  iMISS:          0  dACCESS:   10177215  dHIT:    9759657  dMISS:     417558  itACCESS:          0  itHIT:          0  itMISS:          0  dtACCESS:          0  dtHIT:          0  dtMISS:          0
cpu0_L1D TRANSLATION  ACCESS:     219063  HIT:      13475  MISS:     205588  iACCESS:          0  iHIT:          0  iMISS:          0  dACCESS:          0  dHIT:          0  dMISS:          0  itACCESS:       9892  itHIT:       1005  itMISS:       8887  dtACCESS:     209171  dtHIT:      12470  dtMISS:     196701
cpu0_L1D PREFETCH  REQUESTED:   19137286  ISSUED:   16933520  CROSSED:          0  USEFUL:     307960  USELESS:     700175
cpu0_L1D AVERAGE iMISS LATENCY: 0 cycles
cpu0_L1D AVERAGE dMISS LATENCY: 33.1951 cycles
cpu0_L1D AVERAGE itMISS LATENCY: 0.2111 cycles
cpu0_L1D AVERAGE dtMISS LATENCY: 2.92595 cycles
cpu0_L1D PAGE CROSSINGS (TLB HIT):         0 
cpu0_L1D PAGE CROSSINGS (TLB MISS):         0 
cpu0_L1D AVERAGE MISS LATENCY: 36.3321 cycles
cpu0_L2C TOTAL       ACCESS:    6997787  HIT:    1679638  MISS:    5318149  iACCESS:    3301040  iHIT:     864054  iMISS:    2436986  dACCESS:    3505216  dHIT:     712358  dMISS:    2792858  itACCESS:       8887  itHIT:       4161  itMISS:       4726  dtACCESS:     182644  dtHIT:      99065  dtMISS:      83579
cpu0_L2C LOAD         ACCESS:    1695392  HIT:     284215  MISS:    1411177  iACCESS:     769849  iHIT:     139093  iMISS:     630756  dACCESS:     925543  dHIT:     145122  dMISS:     780421  itACCESS:          0  itHIT:          0  itMISS:          0  dtACCESS:          0  dtHIT:          0  dtMISS:          0
cpu0_L2C RFO          ACCESS:     158329  HIT:      52352  MISS:     105977  iACCESS:          0  iHIT:          0  iMISS:          0  dACCESS:     158329  dHIT:      52352  dMISS:     105977  itACCESS:          0  itHIT:          0  itMISS:          0  dtACCESS:          0  dtHIT:          0  dtMISS:          0
cpu0_L2C PREFETCH     ACCESS:    4673363  HIT:    1105551  MISS:    3567812  iACCESS:    2531191  iHIT:     724961  iMISS:    1806230  dACCESS:    2142172  dHIT:     380590  dMISS:    1761582  itACCESS:          0  itHIT:          0  itMISS:          0  dtACCESS:          0  dtHIT:          0  dtMISS:          0
cpu0_L2C WRITE        ACCESS:     279172  HIT:     134294  MISS:     144878  iACCESS:          0  iHIT:          0  iMISS:          0  dACCESS:     279172  dHIT:     134294  dMISS:     144878  itACCESS:          0  itHIT:          0  itMISS:          0  dtACCESS:          0  dtHIT:          0  dtMISS:          0
cpu0_L2C TRANSLATION  ACCESS:     191531  HIT:     103226  MISS:      88305  iACCESS:          0  iHIT:          0  iMISS:          0  dACCESS:          0  dHIT:          0  dMISS:          0  itACCESS:       8887  itHIT:       4161  itMISS:       4726  dtACCESS:     182644  dtHIT:      99065  dtMISS:      83579
cpu0_L2C PREFETCH  REQUESTED:    1396505  ISSUED:    1396505  CROSSED:          0  USEFUL:     417689  USELESS:     373427
cpu0_L2C AVERAGE iMISS LATENCY: 15.2844 cycles
cpu0_L2C AVERAGE dMISS LATENCY: 25.3622 cycles
cpu0_L2C AVERAGE itMISS LATENCY: 0.122808 cycles
cpu0_L2C AVERAGE dtMISS LATENCY: 1.5968 cycles
cpu0_L2C PAGE CROSSINGS (TLB HIT):         0 
cpu0_L2C PAGE CROSSINGS (TLB MISS):         0 
cpu0_L2C AVERAGE MISS LATENCY: 42.3661 cycles
LLC TOTAL       ACCESS:    5200200  HIT:    4387943  MISS:     812257  iACCESS:    2383803  iHIT:    2142542  iMISS:     241261  dACCESS:    2728092  dHIT:    2199148  dMISS:     528944  itACCESS:       4726  itHIT:       1534  itMISS:       3192  dtACCESS:      83579  dtHIT:      44719  dtMISS:      38860
LLC LOAD         ACCESS:    1409531  HIT:    1226515  MISS:     183016  iACCESS:     629680  iHIT:     577205  iMISS:      52475  dACCESS:     779851  dHIT:     649310  dMISS:     130541  itACCESS:          0  itHIT:          0  itMISS:          0  dtACCESS:          0  dtHIT:          0  dtMISS:          0
LLC RFO          ACCESS:     105976  HIT:      72294  MISS:      33682  iACCESS:          0  iHIT:          0  iMISS:          0  dACCESS:     105976  dHIT:      72294  dMISS:      33682  itACCESS:          0  itHIT:          0  itMISS:          0  dtACCESS:          0  dtHIT:          0  dtMISS:          0
LLC PREFETCH     ACCESS:    3462107  HIT:    2917760  MISS:     544347  iACCESS:    1754123  iHIT:    1565337  iMISS:     188786  dACCESS:    1707984  dHIT:    1352423  dMISS:     355561  itACCESS:          0  itHIT:          0  itMISS:          0  dtACCESS:          0  dtHIT:          0  dtMISS:          0
LLC WRITE        ACCESS:     134281  HIT:     125121  MISS:       9160  iACCESS:          0  iHIT:          0  iMISS:          0  dACCESS:     134281  dHIT:     125121  dMISS:       9160  itACCESS:          0  itHIT:          0  itMISS:          0  dtACCESS:          0  dtHIT:          0  dtMISS:          0
LLC TRANSLATION  ACCESS:      88305  HIT:      46253  MISS:      42052  iACCESS:          0  iHIT:          0  iMISS:          0  dACCESS:          0  dHIT:          0  dMISS:          0  itACCESS:       4726  itHIT:       1534  itMISS:       3192  dtACCESS:      83579  dtHIT:      44719  dtMISS:      38860
LLC PREFETCH  REQUESTED:          0  ISSUED:          0  CROSSED:          0  USEFUL:          0  USELESS:          0
LLC AVERAGE iMISS LATENCY: 43.4831 cycles
LLC AVERAGE dMISS LATENCY: 104.433 cycles
LLC AVERAGE itMISS LATENCY: 0.689891 cycles
LLC AVERAGE dtMISS LATENCY: 8.45274 cycles
LLC PAGE CROSSINGS (TLB HIT):         0 
LLC PAGE CROSSINGS (TLB MISS):         0 
LLC AVERAGE MISS LATENCY: 157.059 cycles

PageTableWalker TOTAL       ACCESS:      72168  
PageTableWalker AVERAGE LATENCY: 5.00947 cycles
PageTableWalker TOTAL LATENCY: 361523 cycles

DRAM Statistics
Channel 0
 RQ ROW_BUFFER_HIT:     224478
  ROW_BUFFER_MISS:     578551
 AVG DBUS CONGESTED CYCLE:    3.63189
 WQ ROW_BUFFER_HIT:      15110
  ROW_BUFFER_MISS:      21020  FULL:          0

