last_page:0x200000000000000
VMEM_RES_CAP:0x100000
PAGE_SIZE:4096
LOG2_PAGE_SIZE:12
LOG2_PAGE_TABLE_SIZE:9
page_table_levels:5
WARNING: physical memory size is smaller than virtual memory size
FDiP enabled with aggresivity 16

*** ChampSim Multicore Out-of-Order Simulator ***

Warmup Instructions: 50000000
Simulation Instructions: 100000000
Number of CPUs: 1
Small page size: 4096
Large page size: 2097152

CPU 0 Bimodal branch predictor
Basic BTB sets: 1024 ways: 8 indirect buffer size: 4096 RAS size: 64
Instruction page size distrubution: 0
Loading instruction page size distribution from /home/bsc/bsc018186/scratch/itp_asplos25_AE/dump/srv575_ap.pdst
Data page size distrubution: 0
Loading data page size distribution from /home/bsc/bsc018186/scratch/itp_asplos25_AE/dump/srv575_ap.pdst
cpu0_L2C IP-based stride prefetcher
cpu0_L1D next line prefetcher
CHiRPing...
cpu0_L1I next line prefetcher
Off-chip DRAM Size: 4 GiB Channels: 1 Width: 64-bit Data Rate: 3200 MT/s
Heartbeat CPU 0 instructions: 10000003 cycles: 2584717 heartbeat IPC: 3.8689 cumulative IPC: 3.8689 (Simulation time: 0 hr 0 min 39 sec) 
Heartbeat CPU 0 instructions: 20000000 cycles: 5560051 heartbeat IPC: 3.36097 cumulative IPC: 3.59709 (Simulation time: 0 hr 1 min 21 sec) 
Heartbeat CPU 0 instructions: 30000003 cycles: 8066517 heartbeat IPC: 3.98969 cumulative IPC: 3.71908 (Simulation time: 0 hr 2 min 0 sec) 
Heartbeat CPU 0 instructions: 40000001 cycles: 10570671 heartbeat IPC: 3.99337 cumulative IPC: 3.78406 (Simulation time: 0 hr 2 min 40 sec) 
Heartbeat CPU 0 instructions: 50000002 cycles: 13070739 heartbeat IPC: 3.9999 cumulative IPC: 3.82534 (Simulation time: 0 hr 3 min 22 sec) 
Warmup finished CPU 0 instructions: 50000002 cycles: 13070740 cumulative IPC: 3.82534 (Simulation time: 0 hr 3 min 22 sec) 

Warmup complete CPU 0 instructions: 50000002 cycles: 13070740 (Simulation time: 0 hr 3 min 22 sec) 

Heartbeat CPU 0 instructions: 60000000 cycles: 32954420 heartbeat IPC: 0.502925 cumulative IPC: 0.502925 (Simulation time: 0 hr 4 min 34 sec) 
Heartbeat CPU 0 instructions: 70000000 cycles: 52682383 heartbeat IPC: 0.506895 cumulative IPC: 0.504903 (Simulation time: 0 hr 5 min 46 sec) 
Heartbeat CPU 0 instructions: 80000000 cycles: 74378622 heartbeat IPC: 0.46091 cumulative IPC: 0.489334 (Simulation time: 0 hr 7 min 1 sec) 
Heartbeat CPU 0 instructions: 90000002 cycles: 94502823 heartbeat IPC: 0.496915 cumulative IPC: 0.491207 (Simulation time: 0 hr 8 min 14 sec) 
Heartbeat CPU 0 instructions: 100000002 cycles: 115310944 heartbeat IPC: 0.480582 cumulative IPC: 0.489045 (Simulation time: 0 hr 9 min 27 sec) 
*** Reached end of trace: /gpfs/projects/bsc18/MN4/bsc18/romol/ChampSim/traces/qualcomm_srv/srv575_ap.champsimtrace.xz
Heartbeat CPU 0 instructions: 110000000 cycles: 135840902 heartbeat IPC: 0.487093 cumulative IPC: 0.488719 (Simulation time: 0 hr 10 min 41 sec) 
Heartbeat CPU 0 instructions: 120000002 cycles: 144174896 heartbeat IPC: 1.19991 cumulative IPC: 0.533927 (Simulation time: 0 hr 11 min 38 sec) 
Heartbeat CPU 0 instructions: 130000003 cycles: 154198806 heartbeat IPC: 0.997615 cumulative IPC: 0.566862 (Simulation time: 0 hr 12 min 35 sec) 
Heartbeat CPU 0 instructions: 140000003 cycles: 166648552 heartbeat IPC: 0.80323 cumulative IPC: 0.586023 (Simulation time: 0 hr 13 min 32 sec) 
Heartbeat CPU 0 instructions: 150000003 cycles: 187804299 heartbeat IPC: 0.472685 cumulative IPC: 0.5723 (Simulation time: 0 hr 14 min 47 sec) 
Simulation finished CPU 0 instructions: 100000001 cycles: 174733560 cumulative IPC: 0.5723 (Simulation time: 0 hr 14 min 47 sec) 

Simulation complete CPU 0 instructions: 100000001 cycles: 174733560 (Simulation time: 0 hr 14 min 47 sec) 


ChampSim completed all CPUs

Saving instructions large page distribution to /home/bsc/bsc018186/scratch/itp_asplos25_AE/dump/srv575_ap.pdst...
Saving data large page distribution to /home/bsc/bsc018186/scratch/itp_asplos25_AE/dump/srv575_ap.pdst...
=== Simulation ===
CPU 0 runs /gpfs/projects/bsc18/MN4/bsc18/romol/ChampSim/traces/qualcomm_srv/srv575_ap.champsimtrace.xz

Region of Interest Statistics

CPU 0 cumulative IPC: 0.5723 instructions: 100000001 cycles: 174733560
CPU 0 Branch Prediction Accuracy: 83.2457% MPKI: 32.6887 Average ROB Occupancy at Mispredict: 11.7112
Branch type MPKI
BRANCH_DIRECT_JUMP: 1.02605
BRANCH_INDIRECT: 16.5248
BRANCH_CONDITIONAL: 10.6766
BRANCH_DIRECT_CALL: 1.93528
BRANCH_INDIRECT_CALL: 1.17673
BRANCH_RETURN: 1.34926

Instructions large pages: 0
Instructions small pages: 1748
Large page distribution for instructions: 0%

Data large pages: 0
Data small pages: 6782
Large page distribution for data: 0%

cpu0_L1I TOTAL       ACCESS:   33115309  HIT:   26814695  MISS:    6300614  iACCESS:   33115309  iHIT:   26814695  iMISS:    6300614  dACCESS:          0  dHIT:          0  dMISS:          0  itACCESS:          0  itHIT:          0  itMISS:          0  dtACCESS:          0  dtHIT:          0  dtMISS:          0
cpu0_L1I LOAD         ACCESS:    8420771  HIT:    6677658  MISS:    1743113  iACCESS:    8420771  iHIT:    6677658  iMISS:    1743113  dACCESS:          0  dHIT:          0  dMISS:          0  itACCESS:          0  itHIT:          0  itMISS:          0  dtACCESS:          0  dtHIT:          0  dtMISS:          0
cpu0_L1I RFO          ACCESS:          0  HIT:          0  MISS:          0  iACCESS:          0  iHIT:          0  iMISS:          0  dACCESS:          0  dHIT:          0  dMISS:          0  itACCESS:          0  itHIT:          0  itMISS:          0  dtACCESS:          0  dtHIT:          0  dtMISS:          0
cpu0_L1I PREFETCH     ACCESS:   24694538  HIT:   20137037  MISS:    4557501  iACCESS:   24694538  iHIT:   20137037  iMISS:    4557501  dACCESS:          0  dHIT:          0  dMISS:          0  itACCESS:          0  itHIT:          0  itMISS:          0  dtACCESS:          0  dtHIT:          0  dtMISS:          0
cpu0_L1I WRITE        ACCESS:          0  HIT:          0  MISS:          0  iACCESS:          0  iHIT:          0  iMISS:          0  dACCESS:          0  dHIT:          0  dMISS:          0  itACCESS:          0  itHIT:          0  itMISS:          0  dtACCESS:          0  dtHIT:          0  dtMISS:          0
cpu0_L1I TRANSLATION  ACCESS:          0  HIT:          0  MISS:          0  iACCESS:          0  iHIT:          0  iMISS:          0  dACCESS:          0  dHIT:          0  dMISS:          0  itACCESS:          0  itHIT:          0  itMISS:          0  dtACCESS:          0  dtHIT:          0  dtMISS:          0
cpu0_L1I PREFETCH  REQUESTED:   26697096  ISSUED:   26697096  CROSSED:          0  USEFUL:    1580590  USELESS:     528137
cpu0_L1I AVERAGE iMISS LATENCY: 18.8384 cycles
cpu0_L1I AVERAGE dMISS LATENCY: 0 cycles
cpu0_L1I AVERAGE itMISS LATENCY: 0 cycles
cpu0_L1I AVERAGE dtMISS LATENCY: 0 cycles
cpu0_L1I PAGE CROSSINGS (TLB HIT):         0 
cpu0_L1I PAGE CROSSINGS (TLB MISS):         0 
cpu0_L1I AVERAGE MISS LATENCY: 18.8384 cycles
cpu0_ITLB TOTAL       ACCESS:   28109488  HIT:   26573555  MISS:    1535933  iACCESS:   28109488  iHIT:   26573555  iMISS:    1535933  dACCESS:          0  dHIT:          0  dMISS:          0  itACCESS:          0  itHIT:          0  itMISS:          0  dtACCESS:          0  dtHIT:          0  dtMISS:          0
cpu0_ITLB LOAD         ACCESS:   28109488  HIT:   26573555  MISS:    1535933  iACCESS:   28109488  iHIT:   26573555  iMISS:    1535933  dACCESS:          0  dHIT:          0  dMISS:          0  itACCESS:          0  itHIT:          0  itMISS:          0  dtACCESS:          0  dtHIT:          0  dtMISS:          0
cpu0_ITLB RFO          ACCESS:          0  HIT:          0  MISS:          0  iACCESS:          0  iHIT:          0  iMISS:          0  dACCESS:          0  dHIT:          0  dMISS:          0  itACCESS:          0  itHIT:          0  itMISS:          0  dtACCESS:          0  dtHIT:          0  dtMISS:          0
cpu0_ITLB PREFETCH     ACCESS:          0  HIT:          0  MISS:          0  iACCESS:          0  iHIT:          0  iMISS:          0  dACCESS:          0  dHIT:          0  dMISS:          0  itACCESS:          0  itHIT:          0  itMISS:          0  dtACCESS:          0  dtHIT:          0  dtMISS:          0
cpu0_ITLB WRITE        ACCESS:          0  HIT:          0  MISS:          0  iACCESS:          0  iHIT:          0  iMISS:          0  dACCESS:          0  dHIT:          0  dMISS:          0  itACCESS:          0  itHIT:          0  itMISS:          0  dtACCESS:          0  dtHIT:          0  dtMISS:          0
cpu0_ITLB TRANSLATION  ACCESS:          0  HIT:          0  MISS:          0  iACCESS:          0  iHIT:          0  iMISS:          0  dACCESS:          0  dHIT:          0  dMISS:          0  itACCESS:          0  itHIT:          0  itMISS:          0  dtACCESS:          0  dtHIT:          0  dtMISS:          0
cpu0_ITLB PREFETCH  REQUESTED:          0  ISSUED:          0  CROSSED:          0  USEFUL:     257640  USELESS:      52761
cpu0_ITLB AVERAGE iMISS LATENCY: 7.48652 cycles
cpu0_ITLB AVERAGE dMISS LATENCY: 0 cycles
cpu0_ITLB AVERAGE itMISS LATENCY: 0 cycles
cpu0_ITLB AVERAGE dtMISS LATENCY: 0 cycles
cpu0_ITLB PAGE CROSSINGS (TLB HIT):         0 
cpu0_ITLB PAGE CROSSINGS (TLB MISS):         0 
cpu0_ITLB AVERAGE MISS LATENCY: 7.48652 cycles
cpu0_DTLB TOTAL       ACCESS:   30696250  HIT:   26913441  MISS:    3782809  iACCESS:          0  iHIT:          0  iMISS:          0  dACCESS:   30696250  dHIT:   26913441  dMISS:    3782809  itACCESS:          0  itHIT:          0  itMISS:          0  dtACCESS:          0  dtHIT:          0  dtMISS:          0
cpu0_DTLB LOAD         ACCESS:   30696250  HIT:   26913441  MISS:    3782809  iACCESS:          0  iHIT:          0  iMISS:          0  dACCESS:   30696250  dHIT:   26913441  dMISS:    3782809  itACCESS:          0  itHIT:          0  itMISS:          0  dtACCESS:          0  dtHIT:          0  dtMISS:          0
cpu0_DTLB RFO          ACCESS:          0  HIT:          0  MISS:          0  iACCESS:          0  iHIT:          0  iMISS:          0  dACCESS:          0  dHIT:          0  dMISS:          0  itACCESS:          0  itHIT:          0  itMISS:          0  dtACCESS:          0  dtHIT:          0  dtMISS:          0
cpu0_DTLB PREFETCH     ACCESS:          0  HIT:          0  MISS:          0  iACCESS:          0  iHIT:          0  iMISS:          0  dACCESS:          0  dHIT:          0  dMISS:          0  itACCESS:          0  itHIT:          0  itMISS:          0  dtACCESS:          0  dtHIT:          0  dtMISS:          0
cpu0_DTLB WRITE        ACCESS:          0  HIT:          0  MISS:          0  iACCESS:          0  iHIT:          0  iMISS:          0  dACCESS:          0  dHIT:          0  dMISS:          0  itACCESS:          0  itHIT:          0  itMISS:          0  dtACCESS:          0  dtHIT:          0  dtMISS:          0
cpu0_DTLB TRANSLATION  ACCESS:          0  HIT:          0  MISS:          0  iACCESS:          0  iHIT:          0  iMISS:          0  dACCESS:          0  dHIT:          0  dMISS:          0  itACCESS:          0  itHIT:          0  itMISS:          0  dtACCESS:          0  dtHIT:          0  dtMISS:          0
cpu0_DTLB PREFETCH  REQUESTED:          0  ISSUED:          0  CROSSED:          0  USEFUL:          0  USELESS:          0
cpu0_DTLB AVERAGE iMISS LATENCY: 0 cycles
cpu0_DTLB AVERAGE dMISS LATENCY: 10.1736 cycles
cpu0_DTLB AVERAGE itMISS LATENCY: 0 cycles
cpu0_DTLB AVERAGE dtMISS LATENCY: 0 cycles
cpu0_DTLB PAGE CROSSINGS (TLB HIT):         0 
cpu0_DTLB PAGE CROSSINGS (TLB MISS):         0 
cpu0_DTLB AVERAGE MISS LATENCY: 10.1736 cycles
cpu0_STLB TOTAL       ACCESS:    2279111  HIT:    2105972  MISS:     173139  iACCESS:     310409  iHIT:     244692  iMISS:      65717  dACCESS:    1968702  dHIT:    1861280  dMISS:     107422  itACCESS:          0  itHIT:          0  itMISS:          0  dtACCESS:          0  dtHIT:          0  dtMISS:          0
cpu0_STLB LOAD         ACCESS:    2279111  HIT:    2105972  MISS:     173139  iACCESS:     310409  iHIT:     244692  iMISS:      65717  dACCESS:    1968702  dHIT:    1861280  dMISS:     107422  itACCESS:          0  itHIT:          0  itMISS:          0  dtACCESS:          0  dtHIT:          0  dtMISS:          0
cpu0_STLB RFO          ACCESS:          0  HIT:          0  MISS:          0  iACCESS:          0  iHIT:          0  iMISS:          0  dACCESS:          0  dHIT:          0  dMISS:          0  itACCESS:          0  itHIT:          0  itMISS:          0  dtACCESS:          0  dtHIT:          0  dtMISS:          0
cpu0_STLB PREFETCH     ACCESS:          0  HIT:          0  MISS:          0  iACCESS:          0  iHIT:          0  iMISS:          0  dACCESS:          0  dHIT:          0  dMISS:          0  itACCESS:          0  itHIT:          0  itMISS:          0  dtACCESS:          0  dtHIT:          0  dtMISS:          0
cpu0_STLB WRITE        ACCESS:          0  HIT:          0  MISS:          0  iACCESS:          0  iHIT:          0  iMISS:          0  dACCESS:          0  dHIT:          0  dMISS:          0  itACCESS:          0  itHIT:          0  itMISS:          0  dtACCESS:          0  dtHIT:          0  dtMISS:          0
cpu0_STLB TRANSLATION  ACCESS:          0  HIT:          0  MISS:          0  iACCESS:          0  iHIT:          0  iMISS:          0  dACCESS:          0  dHIT:          0  dMISS:          0  itACCESS:          0  itHIT:          0  itMISS:          0  dtACCESS:          0  dtHIT:          0  dtMISS:          0
cpu0_STLB PREFETCH  REQUESTED:          0  ISSUED:          0  CROSSED:          0  USEFUL:          0  USELESS:          0
cpu0_STLB AVERAGE iMISS LATENCY: 52.1281 cycles
cpu0_STLB AVERAGE dMISS LATENCY: 130.38 cycles
cpu0_STLB AVERAGE itMISS LATENCY: 0 cycles
cpu0_STLB AVERAGE dtMISS LATENCY: 0 cycles
cpu0_STLB PAGE CROSSINGS (TLB HIT):         0 
cpu0_STLB PAGE CROSSINGS (TLB MISS):         0 
cpu0_STLB AVERAGE MISS LATENCY: 182.508 cycles
cpu0_L1D TOTAL       ACCESS:   46819588  HIT:   40433005  MISS:    6386583  iACCESS:          0  iHIT:          0  iMISS:          0  dACCESS:   46583308  dHIT:   40415163  dMISS:    6168145  itACCESS:      71703  itHIT:       9356  itMISS:      62347  dtACCESS:     164577  dtHIT:       8486  dtMISS:     156091
cpu0_L1D LOAD         ACCESS:   22869208  HIT:   19297273  MISS:    3571935  iACCESS:          0  iHIT:          0  iMISS:          0  dACCESS:   22869208  dHIT:   19297273  dMISS:    3571935  itACCESS:          0  itHIT:          0  itMISS:          0  dtACCESS:          0  dtHIT:          0  dtMISS:          0
cpu0_L1D RFO          ACCESS:          0  HIT:          0  MISS:          0  iACCESS:          0  iHIT:          0  iMISS:          0  dACCESS:          0  dHIT:          0  dMISS:          0  itACCESS:          0  itHIT:          0  itMISS:          0  dtACCESS:          0  dtHIT:          0  dtMISS:          0
cpu0_L1D PREFETCH     ACCESS:   13997962  HIT:   11909208  MISS:    2088754  iACCESS:          0  iHIT:          0  iMISS:          0  dACCESS:   13997962  dHIT:   11909208  dMISS:    2088754  itACCESS:          0  itHIT:          0  itMISS:          0  dtACCESS:          0  dtHIT:          0  dtMISS:          0
cpu0_L1D WRITE        ACCESS:    9716138  HIT:    9208682  MISS:     507456  iACCESS:          0  iHIT:          0  iMISS:          0  dACCESS:    9716138  dHIT:    9208682  dMISS:     507456  itACCESS:          0  itHIT:          0  itMISS:          0  dtACCESS:          0  dtHIT:          0  dtMISS:          0
cpu0_L1D TRANSLATION  ACCESS:     236280  HIT:      17842  MISS:     218438  iACCESS:          0  iHIT:          0  iMISS:          0  dACCESS:          0  dHIT:          0  dMISS:          0  itACCESS:      71703  itHIT:       9356  itMISS:      62347  dtACCESS:     164577  dtHIT:       8486  dtMISS:     156091
cpu0_L1D PREFETCH  REQUESTED:   22869208  ISSUED:   18466358  CROSSED:          0  USEFUL:     268819  USELESS:     885659
cpu0_L1D AVERAGE iMISS LATENCY: 0 cycles
cpu0_L1D AVERAGE dMISS LATENCY: 25.46 cycles
cpu0_L1D AVERAGE itMISS LATENCY: 1.32367 cycles
cpu0_L1D AVERAGE dtMISS LATENCY: 3.26847 cycles
cpu0_L1D PAGE CROSSINGS (TLB HIT):         0 
cpu0_L1D PAGE CROSSINGS (TLB MISS):         0 
cpu0_L1D AVERAGE MISS LATENCY: 30.0521 cycles
cpu0_L2C TOTAL       ACCESS:    8005770  HIT:    5241126  MISS:    2764644  iACCESS:    2699190  iHIT:    1677724  iMISS:    1021466  dACCESS:    5110620  dHIT:    3534994  dMISS:    1575626  itACCESS:      60888  itHIT:      11920  itMISS:      48968  dtACCESS:     135072  dtHIT:      16488  dtMISS:     118584
cpu0_L2C LOAD         ACCESS:    3119833  HIT:    2490566  MISS:     629267  iACCESS:     619680  iHIT:     407755  iMISS:     211925  dACCESS:    2500153  dHIT:    2082811  dMISS:     417342  itACCESS:          0  itHIT:          0  itMISS:          0  dtACCESS:          0  dtHIT:          0  dtMISS:          0
cpu0_L2C RFO          ACCESS:     170240  HIT:      82400  MISS:      87840  iACCESS:          0  iHIT:          0  iMISS:          0  dACCESS:     170240  dHIT:      82400  dMISS:      87840  itACCESS:          0  itHIT:          0  itMISS:          0  dtACCESS:          0  dtHIT:          0  dtMISS:          0
cpu0_L2C PREFETCH     ACCESS:    4285670  HIT:    2406848  MISS:    1878822  iACCESS:    2079510  iHIT:    1269969  iMISS:     809541  dACCESS:    2206160  dHIT:    1136879  dMISS:    1069281  itACCESS:          0  itHIT:          0  itMISS:          0  dtACCESS:          0  dtHIT:          0  dtMISS:          0
cpu0_L2C WRITE        ACCESS:     234067  HIT:     232904  MISS:       1163  iACCESS:          0  iHIT:          0  iMISS:          0  dACCESS:     234067  dHIT:     232904  dMISS:       1163  itACCESS:          0  itHIT:          0  itMISS:          0  dtACCESS:          0  dtHIT:          0  dtMISS:          0
cpu0_L2C TRANSLATION  ACCESS:     195960  HIT:      28408  MISS:     167552  iACCESS:          0  iHIT:          0  iMISS:          0  dACCESS:          0  dHIT:          0  dMISS:          0  itACCESS:      60888  itHIT:      11920  itMISS:      48968  dtACCESS:     135072  dtHIT:      16488  dtMISS:     118584
cpu0_L2C PREFETCH  REQUESTED:    1258580  ISSUED:    1258502  CROSSED:          0  USEFUL:     283358  USELESS:     225397
cpu0_L2C AVERAGE iMISS LATENCY: 34.4122 cycles
cpu0_L2C AVERAGE dMISS LATENCY: 62.3531 cycles
cpu0_L2C AVERAGE itMISS LATENCY: 2.84119 cycles
cpu0_L2C AVERAGE dtMISS LATENCY: 7.06508 cycles
cpu0_L2C PAGE CROSSINGS (TLB HIT):         0 
cpu0_L2C PAGE CROSSINGS (TLB MISS):         0 
cpu0_L2C AVERAGE MISS LATENCY: 106.672 cycles
LLC TOTAL       ACCESS:    2740891  HIT:    1236348  MISS:    1504543  iACCESS:     961738  iHIT:     451692  iMISS:     510046  dACCESS:    1611601  dHIT:     746593  dMISS:     865008  itACCESS:      48968  itHIT:       9940  itMISS:      39028  dtACCESS:     118584  dtHIT:      28123  dtMISS:      90461
LLC LOAD         ACCESS:     624446  HIT:     298456  MISS:     325990  iACCESS:     211117  iHIT:     104248  iMISS:     106869  dACCESS:     413329  dHIT:     194208  dMISS:     219121  itACCESS:          0  itHIT:          0  itMISS:          0  dtACCESS:          0  dtHIT:          0  dtMISS:          0
LLC RFO          ACCESS:      87839  HIT:      32590  MISS:      55249  iACCESS:          0  iHIT:          0  iMISS:          0  dACCESS:      87839  dHIT:      32590  dMISS:      55249  itACCESS:          0  itHIT:          0  itMISS:          0  dtACCESS:          0  dtHIT:          0  dtMISS:          0
LLC PREFETCH     ACCESS:    1741785  HIT:     754818  MISS:     986967  iACCESS:     750621  iHIT:     347444  iMISS:     403177  dACCESS:     991164  dHIT:     407374  dMISS:     583790  itACCESS:          0  itHIT:          0  itMISS:          0  dtACCESS:          0  dtHIT:          0  dtMISS:          0
LLC WRITE        ACCESS:     119269  HIT:     112421  MISS:       6848  iACCESS:          0  iHIT:          0  iMISS:          0  dACCESS:     119269  dHIT:     112421  dMISS:       6848  itACCESS:          0  itHIT:          0  itMISS:          0  dtACCESS:          0  dtHIT:          0  dtMISS:          0
LLC TRANSLATION  ACCESS:     167552  HIT:      38063  MISS:     129489  iACCESS:          0  iHIT:          0  iMISS:          0  dACCESS:          0  dHIT:          0  dMISS:          0  itACCESS:      48968  itHIT:       9940  itMISS:      39028  dtACCESS:     118584  dtHIT:      28123  dtMISS:      90461
LLC PREFETCH  REQUESTED:          0  ISSUED:          0  CROSSED:          0  USEFUL:          0  USELESS:          0
LLC AVERAGE iMISS LATENCY: 50.7323 cycles
LLC AVERAGE dMISS LATENCY: 96.4212 cycles
LLC AVERAGE itMISS LATENCY: 4.57867 cycles
LLC AVERAGE dtMISS LATENCY: 11.432 cycles
LLC PAGE CROSSINGS (TLB HIT):         0 
LLC PAGE CROSSINGS (TLB MISS):         0 
LLC AVERAGE MISS LATENCY: 163.165 cycles

PageTableWalker TOTAL       ACCESS:      61150  
PageTableWalker AVERAGE LATENCY: 5.09287 cycles
PageTableWalker TOTAL LATENCY: 311429 cycles

DRAM Statistics
Channel 0
 RQ ROW_BUFFER_HIT:     401038
  ROW_BUFFER_MISS:    1083022
 AVG DBUS CONGESTED CYCLE:    3.64721
 WQ ROW_BUFFER_HIT:      30202
  ROW_BUFFER_MISS:      25462  FULL:          0

