last_page:0x200000000000000
VMEM_RES_CAP:0x100000
PAGE_SIZE:4096
LOG2_PAGE_SIZE:12
LOG2_PAGE_TABLE_SIZE:9
page_table_levels:5
WARNING: physical memory size is smaller than virtual memory size
FDiP enabled with aggresivity 16

*** ChampSim Multicore Out-of-Order Simulator ***

Warmup Instructions: 50000000
Simulation Instructions: 100000000
Number of CPUs: 1
Small page size: 4096
Large page size: 2097152

CPU 0 Bimodal branch predictor
Basic BTB sets: 1024 ways: 8 indirect buffer size: 4096 RAS size: 64
Instruction page size distrubution: 0
Loading instruction page size distribution from /home/bsc/bsc018186/scratch/itp_asplos25_AE/dump/srv56_ap.pdst
Data page size distrubution: 0
Loading data page size distribution from /home/bsc/bsc018186/scratch/itp_asplos25_AE/dump/srv56_ap.pdst
cpu0_L2C IP-based stride prefetcher
cpu0_L2C is using PTP replacement policy:
	TLB_STRESS_THRESHOLD:0
	PTE_EVICTION_RATIO:0
cpu0_L1D next line prefetcher
CHiRPing...
cpu0_L1I next line prefetcher
Off-chip DRAM Size: 4 GiB Channels: 1 Width: 64-bit Data Rate: 3200 MT/s
Heartbeat CPU 0 instructions: 10000003 cycles: 2500266 heartbeat IPC: 3.99958 cumulative IPC: 3.99958 (Simulation time: 0 hr 0 min 39 sec) 
Heartbeat CPU 0 instructions: 20000000 cycles: 5000318 heartbeat IPC: 3.99992 cumulative IPC: 3.99975 (Simulation time: 0 hr 1 min 18 sec) 
Heartbeat CPU 0 instructions: 30000000 cycles: 7500340 heartbeat IPC: 3.99997 cumulative IPC: 3.99982 (Simulation time: 0 hr 1 min 58 sec) 
Heartbeat CPU 0 instructions: 40000000 cycles: 10000501 heartbeat IPC: 3.99975 cumulative IPC: 3.9998 (Simulation time: 0 hr 2 min 39 sec) 
Heartbeat CPU 0 instructions: 50000000 cycles: 12500589 heartbeat IPC: 3.99986 cumulative IPC: 3.99982 (Simulation time: 0 hr 3 min 19 sec) 
Warmup finished CPU 0 instructions: 50000000 cycles: 12500590 cumulative IPC: 3.99982 (Simulation time: 0 hr 3 min 19 sec) 

Warmup complete CPU 0 instructions: 50000000 cycles: 12500590 (Simulation time: 0 hr 3 min 19 sec) 

Heartbeat CPU 0 instructions: 60000000 cycles: 26940096 heartbeat IPC: 0.692545 cumulative IPC: 0.692545 (Simulation time: 0 hr 4 min 23 sec) 
Heartbeat CPU 0 instructions: 70000000 cycles: 41216000 heartbeat IPC: 0.700482 cumulative IPC: 0.696491 (Simulation time: 0 hr 5 min 27 sec) 
Heartbeat CPU 0 instructions: 80000004 cycles: 55939564 heartbeat IPC: 0.679184 cumulative IPC: 0.690625 (Simulation time: 0 hr 6 min 32 sec) 
Heartbeat CPU 0 instructions: 90000000 cycles: 70510226 heartbeat IPC: 0.686311 cumulative IPC: 0.689541 (Simulation time: 0 hr 7 min 36 sec) 
Heartbeat CPU 0 instructions: 100000001 cycles: 84364483 heartbeat IPC: 0.7218 cumulative IPC: 0.69576 (Simulation time: 0 hr 8 min 39 sec) 
*** Reached end of trace: /gpfs/projects/bsc18/MN4/bsc18/romol/ChampSim/traces/qualcomm_srv/srv56_ap.champsimtrace.xz
Heartbeat CPU 0 instructions: 110000001 cycles: 98732285 heartbeat IPC: 0.696001 cumulative IPC: 0.6958 (Simulation time: 0 hr 9 min 42 sec) 
Heartbeat CPU 0 instructions: 120000000 cycles: 112698521 heartbeat IPC: 0.716013 cumulative IPC: 0.698618 (Simulation time: 0 hr 10 min 44 sec) 
Heartbeat CPU 0 instructions: 130000000 cycles: 126632060 heartbeat IPC: 0.717693 cumulative IPC: 0.700947 (Simulation time: 0 hr 11 min 44 sec) 
Heartbeat CPU 0 instructions: 140000003 cycles: 142059759 heartbeat IPC: 0.648185 cumulative IPC: 0.694664 (Simulation time: 0 hr 12 min 46 sec) 
Heartbeat CPU 0 instructions: 150000002 cycles: 156268558 heartbeat IPC: 0.70379 cumulative IPC: 0.695566 (Simulation time: 0 hr 13 min 45 sec) 
Simulation finished CPU 0 instructions: 100000002 cycles: 143767969 cumulative IPC: 0.695566 (Simulation time: 0 hr 13 min 45 sec) 

Simulation complete CPU 0 instructions: 100000002 cycles: 143767969 (Simulation time: 0 hr 13 min 45 sec) 


ChampSim completed all CPUs

Saving instructions large page distribution to /home/bsc/bsc018186/scratch/itp_asplos25_AE/dump/srv56_ap.pdst...
Saving data large page distribution to /home/bsc/bsc018186/scratch/itp_asplos25_AE/dump/srv56_ap.pdst...
=== Simulation ===
CPU 0 runs /gpfs/projects/bsc18/MN4/bsc18/romol/ChampSim/traces/qualcomm_srv/srv56_ap.champsimtrace.xz

Region of Interest Statistics

CPU 0 cumulative IPC: 0.695566 instructions: 100000002 cycles: 143767969
CPU 0 Branch Prediction Accuracy: 82.5083% MPKI: 31.3359 Average ROB Occupancy at Mispredict: 12.7802
Branch type MPKI
BRANCH_DIRECT_JUMP: 1.06978
BRANCH_INDIRECT: 16.1898
BRANCH_CONDITIONAL: 10.2461
BRANCH_DIRECT_CALL: 1.92883
BRANCH_INDIRECT_CALL: 0.51639
BRANCH_RETURN: 1.38511

Instructions large pages: 0
Instructions small pages: 10539
Large page distribution for instructions: 0%

Data large pages: 0
Data small pages: 9572
Large page distribution for data: 0%

cpu0_L1I TOTAL       ACCESS:   35725858  HIT:   27255950  MISS:    8469908  iACCESS:   35725858  iHIT:   27255950  iMISS:    8469908  dACCESS:          0  dHIT:          0  dMISS:          0  itACCESS:          0  itHIT:          0  itMISS:          0  dtACCESS:          0  dtHIT:          0  dtMISS:          0
cpu0_L1I LOAD         ACCESS:   10462876  HIT:    8097444  MISS:    2365432  iACCESS:   10462876  iHIT:    8097444  iMISS:    2365432  dACCESS:          0  dHIT:          0  dMISS:          0  itACCESS:          0  itHIT:          0  itMISS:          0  dtACCESS:          0  dtHIT:          0  dtMISS:          0
cpu0_L1I RFO          ACCESS:          0  HIT:          0  MISS:          0  iACCESS:          0  iHIT:          0  iMISS:          0  dACCESS:          0  dHIT:          0  dMISS:          0  itACCESS:          0  itHIT:          0  itMISS:          0  dtACCESS:          0  dtHIT:          0  dtMISS:          0
cpu0_L1I PREFETCH     ACCESS:   25262982  HIT:   19158506  MISS:    6104476  iACCESS:   25262982  iHIT:   19158506  iMISS:    6104476  dACCESS:          0  dHIT:          0  dMISS:          0  itACCESS:          0  itHIT:          0  itMISS:          0  dtACCESS:          0  dtHIT:          0  dtMISS:          0
cpu0_L1I WRITE        ACCESS:          0  HIT:          0  MISS:          0  iACCESS:          0  iHIT:          0  iMISS:          0  dACCESS:          0  dHIT:          0  dMISS:          0  itACCESS:          0  itHIT:          0  itMISS:          0  dtACCESS:          0  dtHIT:          0  dtMISS:          0
cpu0_L1I TRANSLATION  ACCESS:          0  HIT:          0  MISS:          0  iACCESS:          0  iHIT:          0  iMISS:          0  dACCESS:          0  dHIT:          0  dMISS:          0  itACCESS:          0  itHIT:          0  itMISS:          0  dtACCESS:          0  dtHIT:          0  dtMISS:          0
cpu0_L1I PREFETCH  REQUESTED:   27538618  ISSUED:   27535582  CROSSED:          0  USEFUL:    1944378  USELESS:     625676
cpu0_L1I AVERAGE iMISS LATENCY: 13.8477 cycles
cpu0_L1I AVERAGE dMISS LATENCY: 0 cycles
cpu0_L1I AVERAGE itMISS LATENCY: 0 cycles
cpu0_L1I AVERAGE dtMISS LATENCY: 0 cycles
cpu0_L1I PAGE CROSSINGS (TLB HIT):         0 
cpu0_L1I PAGE CROSSINGS (TLB MISS):         0 
cpu0_L1I AVERAGE MISS LATENCY: 13.8477 cycles
cpu0_ITLB TOTAL       ACCESS:   29509294  HIT:   27588798  MISS:    1920496  iACCESS:   29509294  iHIT:   27588798  iMISS:    1920496  dACCESS:          0  dHIT:          0  dMISS:          0  itACCESS:          0  itHIT:          0  itMISS:          0  dtACCESS:          0  dtHIT:          0  dtMISS:          0
cpu0_ITLB LOAD         ACCESS:   29509294  HIT:   27588798  MISS:    1920496  iACCESS:   29509294  iHIT:   27588798  iMISS:    1920496  dACCESS:          0  dHIT:          0  dMISS:          0  itACCESS:          0  itHIT:          0  itMISS:          0  dtACCESS:          0  dtHIT:          0  dtMISS:          0
cpu0_ITLB RFO          ACCESS:          0  HIT:          0  MISS:          0  iACCESS:          0  iHIT:          0  iMISS:          0  dACCESS:          0  dHIT:          0  dMISS:          0  itACCESS:          0  itHIT:          0  itMISS:          0  dtACCESS:          0  dtHIT:          0  dtMISS:          0
cpu0_ITLB PREFETCH     ACCESS:          0  HIT:          0  MISS:          0  iACCESS:          0  iHIT:          0  iMISS:          0  dACCESS:          0  dHIT:          0  dMISS:          0  itACCESS:          0  itHIT:          0  itMISS:          0  dtACCESS:          0  dtHIT:          0  dtMISS:          0
cpu0_ITLB WRITE        ACCESS:          0  HIT:          0  MISS:          0  iACCESS:          0  iHIT:          0  iMISS:          0  dACCESS:          0  dHIT:          0  dMISS:          0  itACCESS:          0  itHIT:          0  itMISS:          0  dtACCESS:          0  dtHIT:          0  dtMISS:          0
cpu0_ITLB TRANSLATION  ACCESS:          0  HIT:          0  MISS:          0  iACCESS:          0  iHIT:          0  iMISS:          0  dACCESS:          0  dHIT:          0  dMISS:          0  itACCESS:          0  itHIT:          0  itMISS:          0  dtACCESS:          0  dtHIT:          0  dtMISS:          0
cpu0_ITLB PREFETCH  REQUESTED:          0  ISSUED:          0  CROSSED:          0  USEFUL:     317235  USELESS:      63029
cpu0_ITLB AVERAGE iMISS LATENCY: 2.85378 cycles
cpu0_ITLB AVERAGE dMISS LATENCY: 0 cycles
cpu0_ITLB AVERAGE itMISS LATENCY: 0 cycles
cpu0_ITLB AVERAGE dtMISS LATENCY: 0 cycles
cpu0_ITLB PAGE CROSSINGS (TLB HIT):         0 
cpu0_ITLB PAGE CROSSINGS (TLB MISS):         0 
cpu0_ITLB AVERAGE MISS LATENCY: 2.85378 cycles
cpu0_DTLB TOTAL       ACCESS:   27920496  HIT:   26074965  MISS:    1845531  iACCESS:          0  iHIT:          0  iMISS:          0  dACCESS:   27920496  dHIT:   26074965  dMISS:    1845531  itACCESS:          0  itHIT:          0  itMISS:          0  dtACCESS:          0  dtHIT:          0  dtMISS:          0
cpu0_DTLB LOAD         ACCESS:   27920496  HIT:   26074965  MISS:    1845531  iACCESS:          0  iHIT:          0  iMISS:          0  dACCESS:   27920496  dHIT:   26074965  dMISS:    1845531  itACCESS:          0  itHIT:          0  itMISS:          0  dtACCESS:          0  dtHIT:          0  dtMISS:          0
cpu0_DTLB RFO          ACCESS:          0  HIT:          0  MISS:          0  iACCESS:          0  iHIT:          0  iMISS:          0  dACCESS:          0  dHIT:          0  dMISS:          0  itACCESS:          0  itHIT:          0  itMISS:          0  dtACCESS:          0  dtHIT:          0  dtMISS:          0
cpu0_DTLB PREFETCH     ACCESS:          0  HIT:          0  MISS:          0  iACCESS:          0  iHIT:          0  iMISS:          0  dACCESS:          0  dHIT:          0  dMISS:          0  itACCESS:          0  itHIT:          0  itMISS:          0  dtACCESS:          0  dtHIT:          0  dtMISS:          0
cpu0_DTLB WRITE        ACCESS:          0  HIT:          0  MISS:          0  iACCESS:          0  iHIT:          0  iMISS:          0  dACCESS:          0  dHIT:          0  dMISS:          0  itACCESS:          0  itHIT:          0  itMISS:          0  dtACCESS:          0  dtHIT:          0  dtMISS:          0
cpu0_DTLB TRANSLATION  ACCESS:          0  HIT:          0  MISS:          0  iACCESS:          0  iHIT:          0  iMISS:          0  dACCESS:          0  dHIT:          0  dMISS:          0  itACCESS:          0  itHIT:          0  itMISS:          0  dtACCESS:          0  dtHIT:          0  dtMISS:          0
cpu0_DTLB PREFETCH  REQUESTED:          0  ISSUED:          0  CROSSED:          0  USEFUL:          0  USELESS:          0
cpu0_DTLB AVERAGE iMISS LATENCY: 0 cycles
cpu0_DTLB AVERAGE dMISS LATENCY: 9.66716 cycles
cpu0_DTLB AVERAGE itMISS LATENCY: 0 cycles
cpu0_DTLB AVERAGE dtMISS LATENCY: 0 cycles
cpu0_DTLB PAGE CROSSINGS (TLB HIT):         0 
cpu0_DTLB PAGE CROSSINGS (TLB MISS):         0 
cpu0_DTLB AVERAGE MISS LATENCY: 9.66716 cycles
cpu0_STLB TOTAL       ACCESS:    1526601  HIT:    1355069  MISS:     171532  iACCESS:     380281  iHIT:     320606  iMISS:      59675  dACCESS:    1146320  dHIT:    1034463  dMISS:     111857  itACCESS:          0  itHIT:          0  itMISS:          0  dtACCESS:          0  dtHIT:          0  dtMISS:          0
cpu0_STLB LOAD         ACCESS:    1526601  HIT:    1355069  MISS:     171532  iACCESS:     380281  iHIT:     320606  iMISS:      59675  dACCESS:    1146320  dHIT:    1034463  dMISS:     111857  itACCESS:          0  itHIT:          0  itMISS:          0  dtACCESS:          0  dtHIT:          0  dtMISS:          0
cpu0_STLB RFO          ACCESS:          0  HIT:          0  MISS:          0  iACCESS:          0  iHIT:          0  iMISS:          0  dACCESS:          0  dHIT:          0  dMISS:          0  itACCESS:          0  itHIT:          0  itMISS:          0  dtACCESS:          0  dtHIT:          0  dtMISS:          0
cpu0_STLB PREFETCH     ACCESS:          0  HIT:          0  MISS:          0  iACCESS:          0  iHIT:          0  iMISS:          0  dACCESS:          0  dHIT:          0  dMISS:          0  itACCESS:          0  itHIT:          0  itMISS:          0  dtACCESS:          0  dtHIT:          0  dtMISS:          0
cpu0_STLB WRITE        ACCESS:          0  HIT:          0  MISS:          0  iACCESS:          0  iHIT:          0  iMISS:          0  dACCESS:          0  dHIT:          0  dMISS:          0  itACCESS:          0  itHIT:          0  itMISS:          0  dtACCESS:          0  dtHIT:          0  dtMISS:          0
cpu0_STLB TRANSLATION  ACCESS:          0  HIT:          0  MISS:          0  iACCESS:          0  iHIT:          0  iMISS:          0  dACCESS:          0  dHIT:          0  dMISS:          0  itACCESS:          0  itHIT:          0  itMISS:          0  dtACCESS:          0  dtHIT:          0  dtMISS:          0
cpu0_STLB PREFETCH  REQUESTED:          0  ISSUED:          0  CROSSED:          0  USEFUL:          0  USELESS:          0
cpu0_STLB AVERAGE iMISS LATENCY: 14.4424 cycles
cpu0_STLB AVERAGE dMISS LATENCY: 50.6376 cycles
cpu0_STLB AVERAGE itMISS LATENCY: 0 cycles
cpu0_STLB AVERAGE dtMISS LATENCY: 0 cycles
cpu0_STLB PAGE CROSSINGS (TLB HIT):         0 
cpu0_STLB PAGE CROSSINGS (TLB MISS):         0 
cpu0_STLB AVERAGE MISS LATENCY: 65.0799 cycles
cpu0_L1D TOTAL       ACCESS:   41795879  HIT:   38202891  MISS:    3592988  iACCESS:          0  iHIT:          0  iMISS:          0  dACCESS:   41558114  dHIT:   38182478  dMISS:    3375636  itACCESS:      64436  itHIT:       9196  itMISS:      55240  dtACCESS:     173329  dtHIT:      11217  dtMISS:     162112
cpu0_L1D LOAD         ACCESS:   19153817  HIT:   17629291  MISS:    1524526  iACCESS:          0  iHIT:          0  iMISS:          0  dACCESS:   19153817  dHIT:   17629291  dMISS:    1524526  itACCESS:          0  itHIT:          0  itMISS:          0  dtACCESS:          0  dtHIT:          0  dtMISS:          0
cpu0_L1D RFO          ACCESS:          0  HIT:          0  MISS:          0  iACCESS:          0  iHIT:          0  iMISS:          0  dACCESS:          0  dHIT:          0  dMISS:          0  itACCESS:          0  itHIT:          0  itMISS:          0  dtACCESS:          0  dtHIT:          0  dtMISS:          0
cpu0_L1D PREFETCH     ACCESS:   12204567  HIT:   10795981  MISS:    1408586  iACCESS:          0  iHIT:          0  iMISS:          0  dACCESS:   12204567  dHIT:   10795981  dMISS:    1408586  itACCESS:          0  itHIT:          0  itMISS:          0  dtACCESS:          0  dtHIT:          0  dtMISS:          0
cpu0_L1D WRITE        ACCESS:   10199730  HIT:    9757206  MISS:     442524  iACCESS:          0  iHIT:          0  iMISS:          0  dACCESS:   10199730  dHIT:    9757206  dMISS:     442524  itACCESS:          0  itHIT:          0  itMISS:          0  dtACCESS:          0  dtHIT:          0  dtMISS:          0
cpu0_L1D TRANSLATION  ACCESS:     237765  HIT:      20413  MISS:     217352  iACCESS:          0  iHIT:          0  iMISS:          0  dACCESS:          0  dHIT:          0  dMISS:          0  itACCESS:      64436  itHIT:       9196  itMISS:      55240  dtACCESS:     173329  dtHIT:      11217  dtMISS:     162112
cpu0_L1D PREFETCH  REQUESTED:   19153817  ISSUED:   16942075  CROSSED:          0  USEFUL:     308954  USELESS:     700605
cpu0_L1D AVERAGE iMISS LATENCY: 0 cycles
cpu0_L1D AVERAGE dMISS LATENCY: 34.8782 cycles
cpu0_L1D AVERAGE itMISS LATENCY: 0.546429 cycles
cpu0_L1D AVERAGE dtMISS LATENCY: 1.77198 cycles
cpu0_L1D PAGE CROSSINGS (TLB HIT):         0 
cpu0_L1D PAGE CROSSINGS (TLB MISS):         0 
cpu0_L1D AVERAGE MISS LATENCY: 37.1966 cycles
cpu0_L2C TOTAL       ACCESS:    7015170  HIT:    1255654  MISS:    5759516  iACCESS:    3301348  iHIT:     713335  iMISS:    2588013  dACCESS:    3511527  dHIT:     384223  dMISS:    3127304  itACCESS:      55240  itHIT:      43926  itMISS:      11314  dtACCESS:     147055  dtHIT:     114170  dtMISS:      32885
cpu0_L2C LOAD         ACCESS:    1695560  HIT:     134175  MISS:    1561385  iACCESS:     770170  iHIT:      98789  iMISS:     671381  dACCESS:     925390  dHIT:      35386  dMISS:     890004  itACCESS:          0  itHIT:          0  itMISS:          0  dtACCESS:          0  dtHIT:          0  dtMISS:          0
cpu0_L2C RFO          ACCESS:     158607  HIT:       7653  MISS:     150954  iACCESS:          0  iHIT:          0  iMISS:          0  dACCESS:     158607  dHIT:       7653  dMISS:     150954  itACCESS:          0  itHIT:          0  itMISS:          0  dtACCESS:          0  dtHIT:          0  dtMISS:          0
cpu0_L2C PREFETCH     ACCESS:    4679263  HIT:     902594  MISS:    3776669  iACCESS:    2531178  iHIT:     614546  iMISS:    1916632  dACCESS:    2148085  dHIT:     288048  dMISS:    1860037  itACCESS:          0  itHIT:          0  itMISS:          0  dtACCESS:          0  dtHIT:          0  dtMISS:          0
cpu0_L2C WRITE        ACCESS:     279445  HIT:      53136  MISS:     226309  iACCESS:          0  iHIT:          0  iMISS:          0  dACCESS:     279445  dHIT:      53136  dMISS:     226309  itACCESS:          0  itHIT:          0  itMISS:          0  dtACCESS:          0  dtHIT:          0  dtMISS:          0
cpu0_L2C TRANSLATION  ACCESS:     202295  HIT:     158096  MISS:      44199  iACCESS:          0  iHIT:          0  iMISS:          0  dACCESS:          0  dHIT:          0  dMISS:          0  itACCESS:      55240  itHIT:      43926  itMISS:      11314  dtACCESS:     147055  dtHIT:     114170  dtMISS:      32885
cpu0_L2C PREFETCH  REQUESTED:    1401741  ISSUED:    1401741  CROSSED:          0  USEFUL:     432871  USELESS:     392544
cpu0_L2C AVERAGE iMISS LATENCY: 15.0347 cycles
cpu0_L2C AVERAGE dMISS LATENCY: 25.3813 cycles
cpu0_L2C AVERAGE itMISS LATENCY: 0.252331 cycles
cpu0_L2C AVERAGE dtMISS LATENCY: 0.868669 cycles
cpu0_L2C PAGE CROSSINGS (TLB HIT):         0 
cpu0_L2C PAGE CROSSINGS (TLB MISS):         0 
cpu0_L2C AVERAGE MISS LATENCY: 41.537 cycles
LLC TOTAL       ACCESS:    5674466  HIT:    4827507  MISS:     846959  iACCESS:    2530938  iHIT:    2271982  iMISS:     258956  dACCESS:    3099329  dHIT:    2542420  dMISS:     556909  itACCESS:      11314  itHIT:       4173  itMISS:       7141  dtACCESS:      32885  dtHIT:       8932  dtMISS:      23953
LLC LOAD         ACCESS:    1559625  HIT:    1363534  MISS:     196091  iACCESS:     669904  iHIT:     614097  iMISS:      55807  dACCESS:     889721  dHIT:     749437  dMISS:     140284  itACCESS:          0  itHIT:          0  itMISS:          0  dtACCESS:          0  dtHIT:          0  dtMISS:          0
LLC RFO          ACCESS:     150951  HIT:     109538  MISS:      41413  iACCESS:          0  iHIT:          0  iMISS:          0  dACCESS:     150951  dHIT:     109538  dMISS:      41413  itACCESS:          0  itHIT:          0  itMISS:          0  dtACCESS:          0  dtHIT:          0  dtMISS:          0
LLC PREFETCH     ACCESS:    3664930  HIT:    3086569  MISS:     578361  iACCESS:    1861034  iHIT:    1657885  iMISS:     203149  dACCESS:    1803896  dHIT:    1428684  dMISS:     375212  itACCESS:          0  itHIT:          0  itMISS:          0  dtACCESS:          0  dtHIT:          0  dtMISS:          0
LLC WRITE        ACCESS:     254761  HIT:     254761  MISS:          0  iACCESS:          0  iHIT:          0  iMISS:          0  dACCESS:     254761  dHIT:     254761  dMISS:          0  itACCESS:          0  itHIT:          0  itMISS:          0  dtACCESS:          0  dtHIT:          0  dtMISS:          0
LLC TRANSLATION  ACCESS:      44199  HIT:      13105  MISS:      31094  iACCESS:          0  iHIT:          0  iMISS:          0  dACCESS:          0  dHIT:          0  dMISS:          0  itACCESS:      11314  itHIT:       4173  itMISS:       7141  dtACCESS:      32885  dtHIT:       8932  dtMISS:      23953
LLC PREFETCH  REQUESTED:          0  ISSUED:          0  CROSSED:          0  USEFUL:          0  USELESS:          0
LLC AVERAGE iMISS LATENCY: 44.5808 cycles
LLC AVERAGE dMISS LATENCY: 107.844 cycles
LLC AVERAGE itMISS LATENCY: 1.45414 cycles
LLC AVERAGE dtMISS LATENCY: 5.14401 cycles
LLC PAGE CROSSINGS (TLB HIT):         0 
LLC PAGE CROSSINGS (TLB MISS):         0 
LLC AVERAGE MISS LATENCY: 159.023 cycles

PageTableWalker TOTAL       ACCESS:      87210  
PageTableWalker AVERAGE LATENCY: 4.16039 cycles
PageTableWalker TOTAL LATENCY: 362827 cycles

DRAM Statistics
Channel 0
 RQ ROW_BUFFER_HIT:     243081
  ROW_BUFFER_MISS:     603738
 AVG DBUS CONGESTED CYCLE:    3.64646
 WQ ROW_BUFFER_HIT:      21225
  ROW_BUFFER_MISS:      30035  FULL:          0

