last_page:0x200000000000000
VMEM_RES_CAP:0x100000
PAGE_SIZE:4096
LOG2_PAGE_SIZE:12
LOG2_PAGE_TABLE_SIZE:9
page_table_levels:5
WARNING: physical memory size is smaller than virtual memory size
FDiP enabled with aggresivity 16

*** ChampSim Multicore Out-of-Order Simulator ***

Warmup Instructions: 50000000
Simulation Instructions: 100000000
Number of CPUs: 1
Small page size: 4096
Large page size: 2097152

CPU 0 Bimodal branch predictor
Basic BTB sets: 1024 ways: 8 indirect buffer size: 4096 RAS size: 64
Instruction page size distrubution: 0
Loading instruction page size distribution from /home/bsc/bsc018186/scratch/itp_asplos25_AE/dump/srv551_ap.pdst
Data page size distrubution: 0
Loading data page size distribution from /home/bsc/bsc018186/scratch/itp_asplos25_AE/dump/srv551_ap.pdst
cpu0_L2C IP-based stride prefetcher
cpu0_L1D next line prefetcher
cpu0_L1I next line prefetcher
Off-chip DRAM Size: 4 GiB Channels: 1 Width: 64-bit Data Rate: 3200 MT/s
Heartbeat CPU 0 instructions: 10000001 cycles: 2500263 heartbeat IPC: 3.99958 cumulative IPC: 3.99958 (Simulation time: 0 hr 0 min 34 sec) 
Heartbeat CPU 0 instructions: 20000001 cycles: 5000299 heartbeat IPC: 3.99995 cumulative IPC: 3.99977 (Simulation time: 0 hr 1 min 11 sec) 
Heartbeat CPU 0 instructions: 30000003 cycles: 7500415 heartbeat IPC: 3.99982 cumulative IPC: 3.99978 (Simulation time: 0 hr 1 min 47 sec) 
Heartbeat CPU 0 instructions: 40000000 cycles: 10000479 heartbeat IPC: 3.9999 cumulative IPC: 3.99981 (Simulation time: 0 hr 2 min 24 sec) 
Heartbeat CPU 0 instructions: 50000001 cycles: 12500608 heartbeat IPC: 3.9998 cumulative IPC: 3.99981 (Simulation time: 0 hr 3 min 2 sec) 
Warmup finished CPU 0 instructions: 50000001 cycles: 12500609 cumulative IPC: 3.99981 (Simulation time: 0 hr 3 min 2 sec) 

Warmup complete CPU 0 instructions: 50000001 cycles: 12500609 (Simulation time: 0 hr 3 min 2 sec) 

Heartbeat CPU 0 instructions: 60000000 cycles: 29788100 heartbeat IPC: 0.578453 cumulative IPC: 0.578453 (Simulation time: 0 hr 4 min 5 sec) 
Heartbeat CPU 0 instructions: 70000000 cycles: 36048491 heartbeat IPC: 1.59735 cumulative IPC: 0.849334 (Simulation time: 0 hr 4 min 53 sec) 
Heartbeat CPU 0 instructions: 80000001 cycles: 57525429 heartbeat IPC: 0.465616 cumulative IPC: 0.6663 (Simulation time: 0 hr 6 min 2 sec) 
Heartbeat CPU 0 instructions: 90000003 cycles: 77932507 heartbeat IPC: 0.490027 cumulative IPC: 0.611323 (Simulation time: 0 hr 7 min 9 sec) 
Heartbeat CPU 0 instructions: 100000002 cycles: 99026007 heartbeat IPC: 0.47408 cumulative IPC: 0.577866 (Simulation time: 0 hr 8 min 17 sec) 
*** Reached end of trace: /gpfs/projects/bsc18/MN4/bsc18/romol/ChampSim/traces/qualcomm_srv/srv551_ap.champsimtrace.xz
Heartbeat CPU 0 instructions: 110000001 cycles: 118653333 heartbeat IPC: 0.509494 cumulative IPC: 0.565224 (Simulation time: 0 hr 9 min 23 sec) 
Heartbeat CPU 0 instructions: 120000003 cycles: 138351098 heartbeat IPC: 0.507672 cumulative IPC: 0.556216 (Simulation time: 0 hr 10 min 29 sec) 
Heartbeat CPU 0 instructions: 130000003 cycles: 159651177 heartbeat IPC: 0.469482 cumulative IPC: 0.543661 (Simulation time: 0 hr 11 min 37 sec) 
Heartbeat CPU 0 instructions: 140000001 cycles: 181257910 heartbeat IPC: 0.462819 cumulative IPC: 0.533311 (Simulation time: 0 hr 12 min 46 sec) 
Heartbeat CPU 0 instructions: 150000003 cycles: 202129284 heartbeat IPC: 0.479126 cumulative IPC: 0.527347 (Simulation time: 0 hr 13 min 54 sec) 
Simulation finished CPU 0 instructions: 100000002 cycles: 189628676 cumulative IPC: 0.527347 (Simulation time: 0 hr 13 min 54 sec) 

Simulation complete CPU 0 instructions: 100000002 cycles: 189628676 (Simulation time: 0 hr 13 min 54 sec) 


ChampSim completed all CPUs

Saving instructions large page distribution to /home/bsc/bsc018186/scratch/itp_asplos25_AE/dump/srv551_ap.pdst...
Saving data large page distribution to /home/bsc/bsc018186/scratch/itp_asplos25_AE/dump/srv551_ap.pdst...
=== Simulation ===
CPU 0 runs /gpfs/projects/bsc18/MN4/bsc18/romol/ChampSim/traces/qualcomm_srv/srv551_ap.champsimtrace.xz

Region of Interest Statistics

CPU 0 cumulative IPC: 0.527347 instructions: 100000002 cycles: 189628676
CPU 0 Branch Prediction Accuracy: 83.1561% MPKI: 32.5194 Average ROB Occupancy at Mispredict: 12.0174
Branch type MPKI
BRANCH_DIRECT_JUMP: 1.15096
BRANCH_INDIRECT: 16.5939
BRANCH_CONDITIONAL: 10.3702
BRANCH_DIRECT_CALL: 2.16571
BRANCH_INDIRECT_CALL: 0.69363
BRANCH_RETURN: 1.545

Instructions large pages: 0
Instructions small pages: 6351
Large page distribution for instructions: 0%

Data large pages: 0
Data small pages: 5175
Large page distribution for data: 0%

cpu0_L1I TOTAL       ACCESS:   34439769  HIT:   27487062  MISS:    6952707  iACCESS:   34439769  iHIT:   27487062  iMISS:    6952707  dACCESS:          0  dHIT:          0  dMISS:          0  itACCESS:          0  itHIT:          0  itMISS:          0  dtACCESS:          0  dtHIT:          0  dtMISS:          0
cpu0_L1I LOAD         ACCESS:    9128090  HIT:    7217094  MISS:    1910996  iACCESS:    9128090  iHIT:    7217094  iMISS:    1910996  dACCESS:          0  dHIT:          0  dMISS:          0  itACCESS:          0  itHIT:          0  itMISS:          0  dtACCESS:          0  dtHIT:          0  dtMISS:          0
cpu0_L1I RFO          ACCESS:          0  HIT:          0  MISS:          0  iACCESS:          0  iHIT:          0  iMISS:          0  dACCESS:          0  dHIT:          0  dMISS:          0  itACCESS:          0  itHIT:          0  itMISS:          0  dtACCESS:          0  dtHIT:          0  dtMISS:          0
cpu0_L1I PREFETCH     ACCESS:   25311679  HIT:   20269968  MISS:    5041711  iACCESS:   25311679  iHIT:   20269968  iMISS:    5041711  dACCESS:          0  dHIT:          0  dMISS:          0  itACCESS:          0  itHIT:          0  itMISS:          0  dtACCESS:          0  dtHIT:          0  dtMISS:          0
cpu0_L1I WRITE        ACCESS:          0  HIT:          0  MISS:          0  iACCESS:          0  iHIT:          0  iMISS:          0  dACCESS:          0  dHIT:          0  dMISS:          0  itACCESS:          0  itHIT:          0  itMISS:          0  dtACCESS:          0  dtHIT:          0  dtMISS:          0
cpu0_L1I TRANSLATION  ACCESS:          0  HIT:          0  MISS:          0  iACCESS:          0  iHIT:          0  iMISS:          0  dACCESS:          0  dHIT:          0  dMISS:          0  itACCESS:          0  itHIT:          0  itMISS:          0  dtACCESS:          0  dtHIT:          0  dtMISS:          0
cpu0_L1I PREFETCH  REQUESTED:   27430111  ISSUED:   27430111  CROSSED:          0  USEFUL:    1740959  USELESS:     582647
cpu0_L1I AVERAGE iMISS LATENCY: 19.6198 cycles
cpu0_L1I AVERAGE dMISS LATENCY: 0 cycles
cpu0_L1I AVERAGE itMISS LATENCY: 0 cycles
cpu0_L1I AVERAGE dtMISS LATENCY: 0 cycles
cpu0_L1I PAGE CROSSINGS (TLB HIT):         0 
cpu0_L1I PAGE CROSSINGS (TLB MISS):         0 
cpu0_L1I AVERAGE MISS LATENCY: 19.6198 cycles
cpu0_ITLB TOTAL       ACCESS:   29110643  HIT:   27379765  MISS:    1730878  iACCESS:   29110643  iHIT:   27379765  iMISS:    1730878  dACCESS:          0  dHIT:          0  dMISS:          0  itACCESS:          0  itHIT:          0  itMISS:          0  dtACCESS:          0  dtHIT:          0  dtMISS:          0
cpu0_ITLB LOAD         ACCESS:   29110643  HIT:   27379765  MISS:    1730878  iACCESS:   29110643  iHIT:   27379765  iMISS:    1730878  dACCESS:          0  dHIT:          0  dMISS:          0  itACCESS:          0  itHIT:          0  itMISS:          0  dtACCESS:          0  dtHIT:          0  dtMISS:          0
cpu0_ITLB RFO          ACCESS:          0  HIT:          0  MISS:          0  iACCESS:          0  iHIT:          0  iMISS:          0  dACCESS:          0  dHIT:          0  dMISS:          0  itACCESS:          0  itHIT:          0  itMISS:          0  dtACCESS:          0  dtHIT:          0  dtMISS:          0
cpu0_ITLB PREFETCH     ACCESS:          0  HIT:          0  MISS:          0  iACCESS:          0  iHIT:          0  iMISS:          0  dACCESS:          0  dHIT:          0  dMISS:          0  itACCESS:          0  itHIT:          0  itMISS:          0  dtACCESS:          0  dtHIT:          0  dtMISS:          0
cpu0_ITLB WRITE        ACCESS:          0  HIT:          0  MISS:          0  iACCESS:          0  iHIT:          0  iMISS:          0  dACCESS:          0  dHIT:          0  dMISS:          0  itACCESS:          0  itHIT:          0  itMISS:          0  dtACCESS:          0  dtHIT:          0  dtMISS:          0
cpu0_ITLB TRANSLATION  ACCESS:          0  HIT:          0  MISS:          0  iACCESS:          0  iHIT:          0  iMISS:          0  dACCESS:          0  dHIT:          0  dMISS:          0  itACCESS:          0  itHIT:          0  itMISS:          0  dtACCESS:          0  dtHIT:          0  dtMISS:          0
cpu0_ITLB PREFETCH  REQUESTED:          0  ISSUED:          0  CROSSED:          0  USEFUL:     292291  USELESS:      55292
cpu0_ITLB AVERAGE iMISS LATENCY: 7.94308 cycles
cpu0_ITLB AVERAGE dMISS LATENCY: 0 cycles
cpu0_ITLB AVERAGE itMISS LATENCY: 0 cycles
cpu0_ITLB AVERAGE dtMISS LATENCY: 0 cycles
cpu0_ITLB PAGE CROSSINGS (TLB HIT):         0 
cpu0_ITLB PAGE CROSSINGS (TLB MISS):         0 
cpu0_ITLB AVERAGE MISS LATENCY: 7.94308 cycles
cpu0_DTLB TOTAL       ACCESS:   29812244  HIT:   25398392  MISS:    4413852  iACCESS:          0  iHIT:          0  iMISS:          0  dACCESS:   29812244  dHIT:   25398392  dMISS:    4413852  itACCESS:          0  itHIT:          0  itMISS:          0  dtACCESS:          0  dtHIT:          0  dtMISS:          0
cpu0_DTLB LOAD         ACCESS:   29812244  HIT:   25398392  MISS:    4413852  iACCESS:          0  iHIT:          0  iMISS:          0  dACCESS:   29812244  dHIT:   25398392  dMISS:    4413852  itACCESS:          0  itHIT:          0  itMISS:          0  dtACCESS:          0  dtHIT:          0  dtMISS:          0
cpu0_DTLB RFO          ACCESS:          0  HIT:          0  MISS:          0  iACCESS:          0  iHIT:          0  iMISS:          0  dACCESS:          0  dHIT:          0  dMISS:          0  itACCESS:          0  itHIT:          0  itMISS:          0  dtACCESS:          0  dtHIT:          0  dtMISS:          0
cpu0_DTLB PREFETCH     ACCESS:          0  HIT:          0  MISS:          0  iACCESS:          0  iHIT:          0  iMISS:          0  dACCESS:          0  dHIT:          0  dMISS:          0  itACCESS:          0  itHIT:          0  itMISS:          0  dtACCESS:          0  dtHIT:          0  dtMISS:          0
cpu0_DTLB WRITE        ACCESS:          0  HIT:          0  MISS:          0  iACCESS:          0  iHIT:          0  iMISS:          0  dACCESS:          0  dHIT:          0  dMISS:          0  itACCESS:          0  itHIT:          0  itMISS:          0  dtACCESS:          0  dtHIT:          0  dtMISS:          0
cpu0_DTLB TRANSLATION  ACCESS:          0  HIT:          0  MISS:          0  iACCESS:          0  iHIT:          0  iMISS:          0  dACCESS:          0  dHIT:          0  dMISS:          0  itACCESS:          0  itHIT:          0  itMISS:          0  dtACCESS:          0  dtHIT:          0  dtMISS:          0
cpu0_DTLB PREFETCH  REQUESTED:          0  ISSUED:          0  CROSSED:          0  USEFUL:          0  USELESS:          0
cpu0_DTLB AVERAGE iMISS LATENCY: 0 cycles
cpu0_DTLB AVERAGE dMISS LATENCY: 10.2793 cycles
cpu0_DTLB AVERAGE itMISS LATENCY: 0 cycles
cpu0_DTLB AVERAGE dtMISS LATENCY: 0 cycles
cpu0_DTLB PAGE CROSSINGS (TLB HIT):         0 
cpu0_DTLB PAGE CROSSINGS (TLB MISS):         0 
cpu0_DTLB AVERAGE MISS LATENCY: 10.2793 cycles
cpu0_STLB TOTAL       ACCESS:    2660072  HIT:    2453184  MISS:     206888  iACCESS:     347581  iHIT:     269739  iMISS:      77842  dACCESS:    2312491  dHIT:    2183445  dMISS:     129046  itACCESS:          0  itHIT:          0  itMISS:          0  dtACCESS:          0  dtHIT:          0  dtMISS:          0
cpu0_STLB LOAD         ACCESS:    2660072  HIT:    2453184  MISS:     206888  iACCESS:     347581  iHIT:     269739  iMISS:      77842  dACCESS:    2312491  dHIT:    2183445  dMISS:     129046  itACCESS:          0  itHIT:          0  itMISS:          0  dtACCESS:          0  dtHIT:          0  dtMISS:          0
cpu0_STLB RFO          ACCESS:          0  HIT:          0  MISS:          0  iACCESS:          0  iHIT:          0  iMISS:          0  dACCESS:          0  dHIT:          0  dMISS:          0  itACCESS:          0  itHIT:          0  itMISS:          0  dtACCESS:          0  dtHIT:          0  dtMISS:          0
cpu0_STLB PREFETCH     ACCESS:          0  HIT:          0  MISS:          0  iACCESS:          0  iHIT:          0  iMISS:          0  dACCESS:          0  dHIT:          0  dMISS:          0  itACCESS:          0  itHIT:          0  itMISS:          0  dtACCESS:          0  dtHIT:          0  dtMISS:          0
cpu0_STLB WRITE        ACCESS:          0  HIT:          0  MISS:          0  iACCESS:          0  iHIT:          0  iMISS:          0  dACCESS:          0  dHIT:          0  dMISS:          0  itACCESS:          0  itHIT:          0  itMISS:          0  dtACCESS:          0  dtHIT:          0  dtMISS:          0
cpu0_STLB TRANSLATION  ACCESS:          0  HIT:          0  MISS:          0  iACCESS:          0  iHIT:          0  iMISS:          0  dACCESS:          0  dHIT:          0  dMISS:          0  itACCESS:          0  itHIT:          0  itMISS:          0  dtACCESS:          0  dtHIT:          0  dtMISS:          0
cpu0_STLB PREFETCH  REQUESTED:          0  ISSUED:          0  CROSSED:          0  USEFUL:          0  USELESS:          0
cpu0_STLB AVERAGE iMISS LATENCY: 53.0357 cycles
cpu0_STLB AVERAGE dMISS LATENCY: 128.966 cycles
cpu0_STLB AVERAGE itMISS LATENCY: 0 cycles
cpu0_STLB AVERAGE dtMISS LATENCY: 0 cycles
cpu0_STLB PAGE CROSSINGS (TLB HIT):         0 
cpu0_STLB PAGE CROSSINGS (TLB MISS):         0 
cpu0_STLB AVERAGE MISS LATENCY: 182.002 cycles
cpu0_L1D TOTAL       ACCESS:   45137314  HIT:   38912184  MISS:    6225130  iACCESS:          0  iHIT:          0  iMISS:          0  dACCESS:   44879243  dHIT:   38887855  dMISS:    5991388  itACCESS:      83547  itHIT:      13323  itMISS:      70224  dtACCESS:     174524  dtHIT:      11006  dtMISS:     163518
cpu0_L1D LOAD         ACCESS:   21697337  HIT:   18102587  MISS:    3594750  iACCESS:          0  iHIT:          0  iMISS:          0  dACCESS:   21697337  dHIT:   18102587  dMISS:    3594750  itACCESS:          0  itHIT:          0  itMISS:          0  dtACCESS:          0  dtHIT:          0  dtMISS:          0
cpu0_L1D RFO          ACCESS:          0  HIT:          0  MISS:          0  iACCESS:          0  iHIT:          0  iMISS:          0  dACCESS:          0  dHIT:          0  dMISS:          0  itACCESS:          0  itHIT:          0  itMISS:          0  dtACCESS:          0  dtHIT:          0  dtMISS:          0
cpu0_L1D PREFETCH     ACCESS:   13378914  HIT:   11442670  MISS:    1936244  iACCESS:          0  iHIT:          0  iMISS:          0  dACCESS:   13378914  dHIT:   11442670  dMISS:    1936244  itACCESS:          0  itHIT:          0  itMISS:          0  dtACCESS:          0  dtHIT:          0  dtMISS:          0
cpu0_L1D WRITE        ACCESS:    9802992  HIT:    9342598  MISS:     460394  iACCESS:          0  iHIT:          0  iMISS:          0  dACCESS:    9802992  dHIT:    9342598  dMISS:     460394  itACCESS:          0  itHIT:          0  itMISS:          0  dtACCESS:          0  dtHIT:          0  dtMISS:          0
cpu0_L1D TRANSLATION  ACCESS:     258071  HIT:      24329  MISS:     233742  iACCESS:          0  iHIT:          0  iMISS:          0  dACCESS:          0  dHIT:          0  dMISS:          0  itACCESS:      83547  itHIT:      13323  itMISS:      70224  dtACCESS:     174524  dtHIT:      11006  dtMISS:     163518
cpu0_L1D PREFETCH  REQUESTED:   21697337  ISSUED:   17679367  CROSSED:          0  USEFUL:     276790  USELESS:     832931
cpu0_L1D AVERAGE iMISS LATENCY: 0 cycles
cpu0_L1D AVERAGE dMISS LATENCY: 27.9745 cycles
cpu0_L1D AVERAGE itMISS LATENCY: 1.6523 cycles
cpu0_L1D AVERAGE dtMISS LATENCY: 3.98711 cycles
cpu0_L1D PAGE CROSSINGS (TLB HIT):         0 
cpu0_L1D PAGE CROSSINGS (TLB MISS):         0 
cpu0_L1D AVERAGE MISS LATENCY: 33.6139 cycles
cpu0_L2C TOTAL       ACCESS:    8406170  HIT:    5255560  MISS:    3150610  iACCESS:    2973495  iHIT:    1792735  iMISS:    1180760  dACCESS:    5201706  dHIT:    3430853  dMISS:    1770853  itACCESS:      70224  itHIT:      11847  itMISS:      58377  dtACCESS:     160745  dtHIT:      20125  dtMISS:     140620
cpu0_L2C LOAD         ACCESS:    3251266  HIT:    2536002  MISS:     715264  iACCESS:     683591  iHIT:     437420  iMISS:     246171  dACCESS:    2567675  dHIT:    2098582  dMISS:     469093  itACCESS:          0  itHIT:          0  itMISS:          0  dtACCESS:          0  dtHIT:          0  dtMISS:          0
cpu0_L2C RFO          ACCESS:     167769  HIT:      77026  MISS:      90743  iACCESS:          0  iHIT:          0  iMISS:          0  dACCESS:     167769  dHIT:      77026  dMISS:      90743  itACCESS:          0  itHIT:          0  itMISS:          0  dtACCESS:          0  dtHIT:          0  dtMISS:          0
cpu0_L2C PREFETCH     ACCESS:    4510834  HIT:    2366188  MISS:    2144646  iACCESS:    2289904  iHIT:    1355315  iMISS:     934589  dACCESS:    2220930  dHIT:    1010873  dMISS:    1210057  itACCESS:          0  itHIT:          0  itMISS:          0  dtACCESS:          0  dtHIT:          0  dtMISS:          0
cpu0_L2C WRITE        ACCESS:     245332  HIT:     244372  MISS:        960  iACCESS:          0  iHIT:          0  iMISS:          0  dACCESS:     245332  dHIT:     244372  dMISS:        960  itACCESS:          0  itHIT:          0  itMISS:          0  dtACCESS:          0  dtHIT:          0  dtMISS:          0
cpu0_L2C TRANSLATION  ACCESS:     230969  HIT:      31972  MISS:     198997  iACCESS:          0  iHIT:          0  iMISS:          0  dACCESS:          0  dHIT:          0  dMISS:          0  itACCESS:      70224  itHIT:      11847  itMISS:      58377  dtACCESS:     160745  dtHIT:      20125  dtMISS:     140620
cpu0_L2C PREFETCH  REQUESTED:    1336226  ISSUED:    1336008  CROSSED:          0  USEFUL:     313415  USELESS:     266728
cpu0_L2C AVERAGE iMISS LATENCY: 35.0019 cycles
cpu0_L2C AVERAGE dMISS LATENCY: 60.968 cycles
cpu0_L2C AVERAGE itMISS LATENCY: 3.04483 cycles
cpu0_L2C AVERAGE dtMISS LATENCY: 7.37079 cycles
cpu0_L2C PAGE CROSSINGS (TLB HIT):         0 
cpu0_L2C PAGE CROSSINGS (TLB MISS):         0 
cpu0_L2C AVERAGE MISS LATENCY: 106.386 cycles
LLC TOTAL       ACCESS:    3118679  HIT:    1386635  MISS:    1732044  iACCESS:    1112819  iHIT:     515516  iMISS:     597303  dACCESS:    1806863  dHIT:     829330  dMISS:     977533  itACCESS:      58377  itHIT:       9948  itMISS:      48429  dtACCESS:     140620  dtHIT:      31841  dtMISS:     108779
LLC LOAD         ACCESS:     708183  HIT:     337405  MISS:     370778  iACCESS:     244959  iHIT:     120662  iMISS:     124297  dACCESS:     463224  dHIT:     216743  dMISS:     246481  itACCESS:          0  itHIT:          0  itMISS:          0  dtACCESS:          0  dtHIT:          0  dtMISS:          0
LLC RFO          ACCESS:      90704  HIT:      32944  MISS:      57760  iACCESS:          0  iHIT:          0  iMISS:          0  dACCESS:      90704  dHIT:      32944  dMISS:      57760  itACCESS:          0  itHIT:          0  itMISS:          0  dtACCESS:          0  dtHIT:          0  dtMISS:          0
LLC PREFETCH     ACCESS:    1990168  HIT:     850770  MISS:    1139398  iACCESS:     867860  iHIT:     394854  iMISS:     473006  dACCESS:    1122308  dHIT:     455916  dMISS:     666392  itACCESS:          0  itHIT:          0  itMISS:          0  dtACCESS:          0  dtHIT:          0  dtMISS:          0
LLC WRITE        ACCESS:     130627  HIT:     123727  MISS:       6900  iACCESS:          0  iHIT:          0  iMISS:          0  dACCESS:     130627  dHIT:     123727  dMISS:       6900  itACCESS:          0  itHIT:          0  itMISS:          0  dtACCESS:          0  dtHIT:          0  dtMISS:          0
LLC TRANSLATION  ACCESS:     198997  HIT:      41789  MISS:     157208  iACCESS:          0  iHIT:          0  iMISS:          0  dACCESS:          0  dHIT:          0  dMISS:          0  itACCESS:      58377  itHIT:       9948  itMISS:      48429  dtACCESS:     140620  dtHIT:      31841  dtMISS:     108779
LLC PREFETCH  REQUESTED:          0  ISSUED:          0  CROSSED:          0  USEFUL:          0  USELESS:          0
LLC AVERAGE iMISS LATENCY: 51.0959 cycles
LLC AVERAGE dMISS LATENCY: 92.728 cycles
LLC AVERAGE itMISS LATENCY: 4.8727 cycles
LLC AVERAGE dtMISS LATENCY: 11.8098 cycles
LLC PAGE CROSSINGS (TLB HIT):         0 
LLC PAGE CROSSINGS (TLB MISS):         0 
LLC AVERAGE MISS LATENCY: 160.507 cycles

PageTableWalker TOTAL       ACCESS:     118149  
PageTableWalker AVERAGE LATENCY: 5.05846 cycles
PageTableWalker TOTAL LATENCY: 597651 cycles

DRAM Statistics
Channel 0
 RQ ROW_BUFFER_HIT:     464430
  ROW_BUFFER_MISS:    1248419
 AVG DBUS CONGESTED CYCLE:    3.63702
 WQ ROW_BUFFER_HIT:      33871
  ROW_BUFFER_MISS:      24375  FULL:          0

