last_page:0x200000000000000
VMEM_RES_CAP:0x100000
PAGE_SIZE:4096
LOG2_PAGE_SIZE:12
LOG2_PAGE_TABLE_SIZE:9
page_table_levels:5
WARNING: physical memory size is smaller than virtual memory size
FDiP enabled with aggresivity 16

*** ChampSim Multicore Out-of-Order Simulator ***

Warmup Instructions: 50000000
Simulation Instructions: 100000000
Number of CPUs: 1
Small page size: 4096
Large page size: 2097152

CPU 0 Bimodal branch predictor
Basic BTB sets: 1024 ways: 8 indirect buffer size: 4096 RAS size: 64
Instruction page size distrubution: 0
Loading instruction page size distribution from /home/bsc/bsc018186/scratch/itp_asplos25_AE/dump/srv526_ap.pdst
Data page size distrubution: 0
Loading data page size distribution from /home/bsc/bsc018186/scratch/itp_asplos25_AE/dump/srv526_ap.pdst
cpu0_L2C IP-based stride prefetcher
cpu0_L2C is using PTP replacement policy:
	TLB_STRESS_THRESHOLD:0
	PTE_EVICTION_RATIO:0
cpu0_L1D next line prefetcher
cpu0_STLB using iTP with max lru@8
cpu0_STLB using iTP with instr@0 and data@2
Init sat counter with 3 bits (max:50).
cpu0_L1I next line prefetcher
Off-chip DRAM Size: 4 GiB Channels: 1 Width: 64-bit Data Rate: 3200 MT/s
Heartbeat CPU 0 instructions: 10000001 cycles: 2500358 heartbeat IPC: 3.99943 cumulative IPC: 3.99943 (Simulation time: 0 hr 0 min 42 sec) 
Heartbeat CPU 0 instructions: 20000000 cycles: 5441446 heartbeat IPC: 3.40011 cumulative IPC: 3.6755 (Simulation time: 0 hr 1 min 27 sec) 
Heartbeat CPU 0 instructions: 30000003 cycles: 8087384 heartbeat IPC: 3.77938 cumulative IPC: 3.70949 (Simulation time: 0 hr 2 min 11 sec) 
Heartbeat CPU 0 instructions: 40000001 cycles: 10587670 heartbeat IPC: 3.99955 cumulative IPC: 3.77798 (Simulation time: 0 hr 2 min 52 sec) 
Heartbeat CPU 0 instructions: 50000003 cycles: 13087839 heartbeat IPC: 3.99974 cumulative IPC: 3.82035 (Simulation time: 0 hr 3 min 36 sec) 
Warmup finished CPU 0 instructions: 50000003 cycles: 13087840 cumulative IPC: 3.82035 (Simulation time: 0 hr 3 min 36 sec) 

Warmup complete CPU 0 instructions: 50000003 cycles: 13087840 (Simulation time: 0 hr 3 min 37 sec) 

Heartbeat CPU 0 instructions: 60000003 cycles: 28788053 heartbeat IPC: 0.636934 cumulative IPC: 0.636935 (Simulation time: 0 hr 4 min 47 sec) 
Heartbeat CPU 0 instructions: 70000001 cycles: 45219329 heartbeat IPC: 0.608596 cumulative IPC: 0.622443 (Simulation time: 0 hr 5 min 56 sec) 
Heartbeat CPU 0 instructions: 80000001 cycles: 62240405 heartbeat IPC: 0.587507 cumulative IPC: 0.610345 (Simulation time: 0 hr 7 min 6 sec) 
Heartbeat CPU 0 instructions: 90000001 cycles: 78522780 heartbeat IPC: 0.614162 cumulative IPC: 0.611295 (Simulation time: 0 hr 8 min 12 sec) 
Heartbeat CPU 0 instructions: 100000000 cycles: 95277239 heartbeat IPC: 0.596856 cumulative IPC: 0.608351 (Simulation time: 0 hr 9 min 18 sec) 
*** Reached end of trace: /gpfs/projects/bsc18/MN4/bsc18/romol/ChampSim/traces/qualcomm_srv/srv526_ap.champsimtrace.xz
Heartbeat CPU 0 instructions: 110000000 cycles: 111508986 heartbeat IPC: 0.616077 cumulative IPC: 0.609626 (Simulation time: 0 hr 10 min 24 sec) 
Heartbeat CPU 0 instructions: 120000004 cycles: 123187220 heartbeat IPC: 0.856295 cumulative IPC: 0.63579 (Simulation time: 0 hr 11 min 25 sec) 
Heartbeat CPU 0 instructions: 130000002 cycles: 133999435 heartbeat IPC: 0.92488 cumulative IPC: 0.661641 (Simulation time: 0 hr 12 min 26 sec) 
Heartbeat CPU 0 instructions: 140000003 cycles: 150047863 heartbeat IPC: 0.623115 cumulative IPC: 0.657127 (Simulation time: 0 hr 13 min 31 sec) 
Heartbeat CPU 0 instructions: 150000000 cycles: 166262456 heartbeat IPC: 0.616729 cumulative IPC: 0.65285 (Simulation time: 0 hr 14 min 37 sec) 
Simulation finished CPU 0 instructions: 100000001 cycles: 153174619 cumulative IPC: 0.65285 (Simulation time: 0 hr 14 min 37 sec) 

Simulation complete CPU 0 instructions: 100000001 cycles: 153174619 (Simulation time: 0 hr 14 min 37 sec) 


ChampSim completed all CPUs

Saving instructions large page distribution to /home/bsc/bsc018186/scratch/itp_asplos25_AE/dump/srv526_ap.pdst...
Saving data large page distribution to /home/bsc/bsc018186/scratch/itp_asplos25_AE/dump/srv526_ap.pdst...
=== Simulation ===
CPU 0 runs /gpfs/projects/bsc18/MN4/bsc18/romol/ChampSim/traces/qualcomm_srv/srv526_ap.champsimtrace.xz

Region of Interest Statistics

CPU 0 cumulative IPC: 0.65285 instructions: 100000001 cycles: 153174619
CPU 0 Branch Prediction Accuracy: 84.5898% MPKI: 29.6827 Average ROB Occupancy at Mispredict: 12.8201
Branch type MPKI
BRANCH_DIRECT_JUMP: 1.08154
BRANCH_INDIRECT: 15.2585
BRANCH_CONDITIONAL: 9.34651
BRANCH_DIRECT_CALL: 1.96347
BRANCH_INDIRECT_CALL: 0.63377
BRANCH_RETURN: 1.39895

Instructions large pages: 0
Instructions small pages: 1113
Large page distribution for instructions: 0%

Data large pages: 0
Data small pages: 9531
Large page distribution for data: 0%

cpu0_L1I TOTAL       ACCESS:   34670912  HIT:   26958235  MISS:    7712677  iACCESS:   34670912  iHIT:   26958235  iMISS:    7712677  dACCESS:          0  dHIT:          0  dMISS:          0  itACCESS:          0  itHIT:          0  itMISS:          0  dtACCESS:          0  dtHIT:          0  dtMISS:          0
cpu0_L1I LOAD         ACCESS:    9250516  HIT:    7100189  MISS:    2150327  iACCESS:    9250516  iHIT:    7100189  iMISS:    2150327  dACCESS:          0  dHIT:          0  dMISS:          0  itACCESS:          0  itHIT:          0  itMISS:          0  dtACCESS:          0  dtHIT:          0  dtMISS:          0
cpu0_L1I RFO          ACCESS:          0  HIT:          0  MISS:          0  iACCESS:          0  iHIT:          0  iMISS:          0  dACCESS:          0  dHIT:          0  dMISS:          0  itACCESS:          0  itHIT:          0  itMISS:          0  dtACCESS:          0  dtHIT:          0  dtMISS:          0
cpu0_L1I PREFETCH     ACCESS:   25420396  HIT:   19858046  MISS:    5562350  iACCESS:   25420396  iHIT:   19858046  iMISS:    5562350  dACCESS:          0  dHIT:          0  dMISS:          0  itACCESS:          0  itHIT:          0  itMISS:          0  dtACCESS:          0  dtHIT:          0  dtMISS:          0
cpu0_L1I WRITE        ACCESS:          0  HIT:          0  MISS:          0  iACCESS:          0  iHIT:          0  iMISS:          0  dACCESS:          0  dHIT:          0  dMISS:          0  itACCESS:          0  itHIT:          0  itMISS:          0  dtACCESS:          0  dtHIT:          0  dtMISS:          0
cpu0_L1I TRANSLATION  ACCESS:          0  HIT:          0  MISS:          0  iACCESS:          0  iHIT:          0  iMISS:          0  dACCESS:          0  dHIT:          0  dMISS:          0  itACCESS:          0  itHIT:          0  itMISS:          0  dtACCESS:          0  dtHIT:          0  dtMISS:          0
cpu0_L1I PREFETCH  REQUESTED:   27373058  ISSUED:   27371793  CROSSED:          0  USEFUL:    1749592  USELESS:     594919
cpu0_L1I AVERAGE iMISS LATENCY: 16.3421 cycles
cpu0_L1I AVERAGE dMISS LATENCY: 0 cycles
cpu0_L1I AVERAGE itMISS LATENCY: 0 cycles
cpu0_L1I AVERAGE dtMISS LATENCY: 0 cycles
cpu0_L1I PAGE CROSSINGS (TLB HIT):         0 
cpu0_L1I PAGE CROSSINGS (TLB MISS):         0 
cpu0_L1I AVERAGE MISS LATENCY: 16.3421 cycles
cpu0_ITLB TOTAL       ACCESS:   28910347  HIT:   27123141  MISS:    1787206  iACCESS:   28910347  iHIT:   27123141  iMISS:    1787206  dACCESS:          0  dHIT:          0  dMISS:          0  itACCESS:          0  itHIT:          0  itMISS:          0  dtACCESS:          0  dtHIT:          0  dtMISS:          0
cpu0_ITLB LOAD         ACCESS:   28910347  HIT:   27123141  MISS:    1787206  iACCESS:   28910347  iHIT:   27123141  iMISS:    1787206  dACCESS:          0  dHIT:          0  dMISS:          0  itACCESS:          0  itHIT:          0  itMISS:          0  dtACCESS:          0  dtHIT:          0  dtMISS:          0
cpu0_ITLB RFO          ACCESS:          0  HIT:          0  MISS:          0  iACCESS:          0  iHIT:          0  iMISS:          0  dACCESS:          0  dHIT:          0  dMISS:          0  itACCESS:          0  itHIT:          0  itMISS:          0  dtACCESS:          0  dtHIT:          0  dtMISS:          0
cpu0_ITLB PREFETCH     ACCESS:          0  HIT:          0  MISS:          0  iACCESS:          0  iHIT:          0  iMISS:          0  dACCESS:          0  dHIT:          0  dMISS:          0  itACCESS:          0  itHIT:          0  itMISS:          0  dtACCESS:          0  dtHIT:          0  dtMISS:          0
cpu0_ITLB WRITE        ACCESS:          0  HIT:          0  MISS:          0  iACCESS:          0  iHIT:          0  iMISS:          0  dACCESS:          0  dHIT:          0  dMISS:          0  itACCESS:          0  itHIT:          0  itMISS:          0  dtACCESS:          0  dtHIT:          0  dtMISS:          0
cpu0_ITLB TRANSLATION  ACCESS:          0  HIT:          0  MISS:          0  iACCESS:          0  iHIT:          0  iMISS:          0  dACCESS:          0  dHIT:          0  dMISS:          0  itACCESS:          0  itHIT:          0  itMISS:          0  dtACCESS:          0  dtHIT:          0  dtMISS:          0
cpu0_ITLB PREFETCH  REQUESTED:          0  ISSUED:          0  CROSSED:          0  USEFUL:     300215  USELESS:      63045
cpu0_ITLB AVERAGE iMISS LATENCY: 2.35496 cycles
cpu0_ITLB AVERAGE dMISS LATENCY: 0 cycles
cpu0_ITLB AVERAGE itMISS LATENCY: 0 cycles
cpu0_ITLB AVERAGE dtMISS LATENCY: 0 cycles
cpu0_ITLB PAGE CROSSINGS (TLB HIT):         0 
cpu0_ITLB PAGE CROSSINGS (TLB MISS):         0 
cpu0_ITLB AVERAGE MISS LATENCY: 2.35496 cycles
cpu0_DTLB TOTAL       ACCESS:   29661827  HIT:   25573375  MISS:    4088452  iACCESS:          0  iHIT:          0  iMISS:          0  dACCESS:   29661827  dHIT:   25573375  dMISS:    4088452  itACCESS:          0  itHIT:          0  itMISS:          0  dtACCESS:          0  dtHIT:          0  dtMISS:          0
cpu0_DTLB LOAD         ACCESS:   29661827  HIT:   25573375  MISS:    4088452  iACCESS:          0  iHIT:          0  iMISS:          0  dACCESS:   29661827  dHIT:   25573375  dMISS:    4088452  itACCESS:          0  itHIT:          0  itMISS:          0  dtACCESS:          0  dtHIT:          0  dtMISS:          0
cpu0_DTLB RFO          ACCESS:          0  HIT:          0  MISS:          0  iACCESS:          0  iHIT:          0  iMISS:          0  dACCESS:          0  dHIT:          0  dMISS:          0  itACCESS:          0  itHIT:          0  itMISS:          0  dtACCESS:          0  dtHIT:          0  dtMISS:          0
cpu0_DTLB PREFETCH     ACCESS:          0  HIT:          0  MISS:          0  iACCESS:          0  iHIT:          0  iMISS:          0  dACCESS:          0  dHIT:          0  dMISS:          0  itACCESS:          0  itHIT:          0  itMISS:          0  dtACCESS:          0  dtHIT:          0  dtMISS:          0
cpu0_DTLB WRITE        ACCESS:          0  HIT:          0  MISS:          0  iACCESS:          0  iHIT:          0  iMISS:          0  dACCESS:          0  dHIT:          0  dMISS:          0  itACCESS:          0  itHIT:          0  itMISS:          0  dtACCESS:          0  dtHIT:          0  dtMISS:          0
cpu0_DTLB TRANSLATION  ACCESS:          0  HIT:          0  MISS:          0  iACCESS:          0  iHIT:          0  iMISS:          0  dACCESS:          0  dHIT:          0  dMISS:          0  itACCESS:          0  itHIT:          0  itMISS:          0  dtACCESS:          0  dtHIT:          0  dtMISS:          0
cpu0_DTLB PREFETCH  REQUESTED:          0  ISSUED:          0  CROSSED:          0  USEFUL:          0  USELESS:          0
cpu0_DTLB AVERAGE iMISS LATENCY: 0 cycles
cpu0_DTLB AVERAGE dMISS LATENCY: 7.2833 cycles
cpu0_DTLB AVERAGE itMISS LATENCY: 0 cycles
cpu0_DTLB AVERAGE dtMISS LATENCY: 0 cycles
cpu0_DTLB PAGE CROSSINGS (TLB HIT):         0 
cpu0_DTLB PAGE CROSSINGS (TLB MISS):         0 
cpu0_DTLB AVERAGE MISS LATENCY: 7.2833 cycles
cpu0_STLB TOTAL       ACCESS:    2570771  HIT:    2405129  MISS:     165642  iACCESS:     363277  iHIT:     350284  iMISS:      12993  dACCESS:    2207494  dHIT:    2054845  dMISS:     152649  itACCESS:          0  itHIT:          0  itMISS:          0  dtACCESS:          0  dtHIT:          0  dtMISS:          0
cpu0_STLB LOAD         ACCESS:    2570771  HIT:    2405129  MISS:     165642  iACCESS:     363277  iHIT:     350284  iMISS:      12993  dACCESS:    2207494  dHIT:    2054845  dMISS:     152649  itACCESS:          0  itHIT:          0  itMISS:          0  dtACCESS:          0  dtHIT:          0  dtMISS:          0
cpu0_STLB RFO          ACCESS:          0  HIT:          0  MISS:          0  iACCESS:          0  iHIT:          0  iMISS:          0  dACCESS:          0  dHIT:          0  dMISS:          0  itACCESS:          0  itHIT:          0  itMISS:          0  dtACCESS:          0  dtHIT:          0  dtMISS:          0
cpu0_STLB PREFETCH     ACCESS:          0  HIT:          0  MISS:          0  iACCESS:          0  iHIT:          0  iMISS:          0  dACCESS:          0  dHIT:          0  dMISS:          0  itACCESS:          0  itHIT:          0  itMISS:          0  dtACCESS:          0  dtHIT:          0  dtMISS:          0
cpu0_STLB WRITE        ACCESS:          0  HIT:          0  MISS:          0  iACCESS:          0  iHIT:          0  iMISS:          0  dACCESS:          0  dHIT:          0  dMISS:          0  itACCESS:          0  itHIT:          0  itMISS:          0  dtACCESS:          0  dtHIT:          0  dtMISS:          0
cpu0_STLB TRANSLATION  ACCESS:          0  HIT:          0  MISS:          0  iACCESS:          0  iHIT:          0  iMISS:          0  dACCESS:          0  dHIT:          0  dMISS:          0  itACCESS:          0  itHIT:          0  itMISS:          0  dtACCESS:          0  dtHIT:          0  dtMISS:          0
cpu0_STLB PREFETCH  REQUESTED:          0  ISSUED:          0  CROSSED:          0  USEFUL:          0  USELESS:          0
cpu0_STLB AVERAGE iMISS LATENCY: 8.35282 cycles
cpu0_STLB AVERAGE dMISS LATENCY: 71.991 cycles
cpu0_STLB AVERAGE itMISS LATENCY: 0 cycles
cpu0_STLB AVERAGE dtMISS LATENCY: 0 cycles
cpu0_STLB PAGE CROSSINGS (TLB HIT):         0 
cpu0_STLB PAGE CROSSINGS (TLB MISS):         0 
cpu0_STLB AVERAGE MISS LATENCY: 80.3438 cycles
cpu0_L1D TOTAL       ACCESS:   45683080  HIT:   38806878  MISS:    6876202  iACCESS:          0  iHIT:          0  iMISS:          0  dACCESS:   45443236  dHIT:   38791025  dMISS:    6652211  itACCESS:      16425  itHIT:       1071  itMISS:      15354  dtACCESS:     223419  dtHIT:      14782  dtMISS:     208637
cpu0_L1D LOAD         ACCESS:   21907117  HIT:   18102872  MISS:    3804245  iACCESS:          0  iHIT:          0  iMISS:          0  dACCESS:   21907117  dHIT:   18102872  dMISS:    3804245  itACCESS:          0  itHIT:          0  itMISS:          0  dtACCESS:          0  dtHIT:          0  dtMISS:          0
cpu0_L1D RFO          ACCESS:          0  HIT:          0  MISS:          0  iACCESS:          0  iHIT:          0  iMISS:          0  dACCESS:          0  dHIT:          0  dMISS:          0  itACCESS:          0  itHIT:          0  itMISS:          0  dtACCESS:          0  dtHIT:          0  dtMISS:          0
cpu0_L1D PREFETCH     ACCESS:   13578417  HIT:   11213734  MISS:    2364683  iACCESS:          0  iHIT:          0  iMISS:          0  dACCESS:   13578417  dHIT:   11213734  dMISS:    2364683  itACCESS:          0  itHIT:          0  itMISS:          0  dtACCESS:          0  dtHIT:          0  dtMISS:          0
cpu0_L1D WRITE        ACCESS:    9957702  HIT:    9474419  MISS:     483283  iACCESS:          0  iHIT:          0  iMISS:          0  dACCESS:    9957702  dHIT:    9474419  dMISS:     483283  itACCESS:          0  itHIT:          0  itMISS:          0  dtACCESS:          0  dtHIT:          0  dtMISS:          0
cpu0_L1D TRANSLATION  ACCESS:     239844  HIT:      15853  MISS:     223991  iACCESS:          0  iHIT:          0  iMISS:          0  dACCESS:          0  dHIT:          0  dMISS:          0  itACCESS:      16425  itHIT:       1071  itMISS:      15354  dtACCESS:     223419  dtHIT:      14782  dtMISS:     208637
cpu0_L1D PREFETCH  REQUESTED:   21907117  ISSUED:   17432859  CROSSED:          0  USEFUL:     267765  USELESS:     790185
cpu0_L1D AVERAGE iMISS LATENCY: 0 cycles
cpu0_L1D AVERAGE dMISS LATENCY: 25.0315 cycles
cpu0_L1D AVERAGE itMISS LATENCY: 0.180631 cycles
cpu0_L1D AVERAGE dtMISS LATENCY: 1.30451 cycles
cpu0_L1D PAGE CROSSINGS (TLB HIT):         0 
cpu0_L1D PAGE CROSSINGS (TLB MISS):         0 
cpu0_L1D AVERAGE MISS LATENCY: 26.5166 cycles
cpu0_L2C TOTAL       ACCESS:    8062002  HIT:    1684689  MISS:    6377313  iACCESS:    3031196  iHIT:     584004  iMISS:    2447192  dACCESS:    4814964  dHIT:     939714  dMISS:    3875250  itACCESS:      15180  itHIT:       6641  itMISS:       8539  dtACCESS:     200662  dtHIT:     154330  dtMISS:      46332
cpu0_L2C LOAD         ACCESS:    3042697  HIT:     643191  MISS:    2399506  iACCESS:     715091  iHIT:      85320  iMISS:     629771  dACCESS:    2327606  dHIT:     557871  dMISS:    1769735  itACCESS:          0  itHIT:          0  itMISS:          0  dtACCESS:          0  dtHIT:          0  dtMISS:          0
cpu0_L2C RFO          ACCESS:     179061  HIT:      26032  MISS:     153029  iACCESS:          0  iHIT:          0  iMISS:          0  dACCESS:     179061  dHIT:      26032  dMISS:     153029  itACCESS:          0  itHIT:          0  itMISS:          0  dtACCESS:          0  dtHIT:          0  dtMISS:          0
cpu0_L2C PREFETCH     ACCESS:    4371449  HIT:     799741  MISS:    3571708  iACCESS:    2316105  iHIT:     498684  iMISS:    1817421  dACCESS:    2055344  dHIT:     301057  dMISS:    1754287  itACCESS:          0  itHIT:          0  itMISS:          0  dtACCESS:          0  dtHIT:          0  dtMISS:          0
cpu0_L2C WRITE        ACCESS:     252953  HIT:      54754  MISS:     198199  iACCESS:          0  iHIT:          0  iMISS:          0  dACCESS:     252953  dHIT:      54754  dMISS:     198199  itACCESS:          0  itHIT:          0  itMISS:          0  dtACCESS:          0  dtHIT:          0  dtMISS:          0
cpu0_L2C TRANSLATION  ACCESS:     215842  HIT:     160971  MISS:      54871  iACCESS:          0  iHIT:          0  iMISS:          0  dACCESS:          0  dHIT:          0  dMISS:          0  itACCESS:      15180  itHIT:       6641  itMISS:       8539  dtACCESS:     200662  dtHIT:     154330  dtMISS:      46332
cpu0_L2C PREFETCH  REQUESTED:    1210401  ISSUED:    1210401  CROSSED:          0  USEFUL:     348448  USELESS:     368519
cpu0_L2C AVERAGE iMISS LATENCY: 15.4298 cycles
cpu0_L2C AVERAGE dMISS LATENCY: 28.4352 cycles
cpu0_L2C AVERAGE itMISS LATENCY: 0.171953 cycles
cpu0_L2C AVERAGE dtMISS LATENCY: 1.1148 cycles
cpu0_L2C PAGE CROSSINGS (TLB HIT):         0 
cpu0_L2C PAGE CROSSINGS (TLB MISS):         0 
cpu0_L2C AVERAGE MISS LATENCY: 45.1517 cycles
LLC TOTAL       ACCESS:    6275721  HIT:    5197999  MISS:    1077722  iACCESS:    2388752  iHIT:    2033110  iMISS:     355642  dACCESS:    3832098  dHIT:    3150710  dMISS:     681388  itACCESS:       8539  itHIT:       3228  itMISS:       5311  dtACCESS:      46332  dtHIT:      10951  dtMISS:      35381
LLC LOAD         ACCESS:    2396637  HIT:    2144078  MISS:     252559  iACCESS:     628565  iHIT:     554202  iMISS:      74363  dACCESS:    1768072  dHIT:    1589876  dMISS:     178196  itACCESS:          0  itHIT:          0  itMISS:          0  dtACCESS:          0  dtHIT:          0  dtMISS:          0
LLC RFO          ACCESS:     153029  HIT:      96298  MISS:      56731  iACCESS:          0  iHIT:          0  iMISS:          0  dACCESS:     153029  dHIT:      96298  dMISS:      56731  itACCESS:          0  itHIT:          0  itMISS:          0  dtACCESS:          0  dtHIT:          0  dtMISS:          0
LLC PREFETCH     ACCESS:    3441448  HIT:    2713709  MISS:     727739  iACCESS:    1760187  iHIT:    1478908  iMISS:     281279  dACCESS:    1681261  dHIT:    1234801  dMISS:     446460  itACCESS:          0  itHIT:          0  itMISS:          0  dtACCESS:          0  dtHIT:          0  dtMISS:          0
LLC WRITE        ACCESS:     229736  HIT:     229735  MISS:          1  iACCESS:          0  iHIT:          0  iMISS:          0  dACCESS:     229736  dHIT:     229735  dMISS:          1  itACCESS:          0  itHIT:          0  itMISS:          0  dtACCESS:          0  dtHIT:          0  dtMISS:          0
LLC TRANSLATION  ACCESS:      54871  HIT:      14179  MISS:      40692  iACCESS:          0  iHIT:          0  iMISS:          0  dACCESS:          0  dHIT:          0  dMISS:          0  itACCESS:       8539  itHIT:       3228  itMISS:       5311  dtACCESS:      46332  dtHIT:      10951  dtMISS:      35381
LLC PREFETCH  REQUESTED:          0  ISSUED:          0  CROSSED:          0  USEFUL:          0  USELESS:          0
LLC AVERAGE iMISS LATENCY: 48.465 cycles
LLC AVERAGE dMISS LATENCY: 103.704 cycles
LLC AVERAGE itMISS LATENCY: 0.86242 cycles
LLC AVERAGE dtMISS LATENCY: 5.74998 cycles
LLC PAGE CROSSINGS (TLB HIT):         0 
LLC PAGE CROSSINGS (TLB MISS):         0 
LLC AVERAGE MISS LATENCY: 158.782 cycles

PageTableWalker TOTAL       ACCESS:      71506  
PageTableWalker AVERAGE LATENCY: 4.78069 cycles
PageTableWalker TOTAL LATENCY: 341848 cycles

DRAM Statistics
Channel 0
 RQ ROW_BUFFER_HIT:     319039
  ROW_BUFFER_MISS:     757269
 AVG DBUS CONGESTED CYCLE:    3.62971
 WQ ROW_BUFFER_HIT:      29053
  ROW_BUFFER_MISS:      32463  FULL:          0

