last_page:0x200000000000000
VMEM_RES_CAP:0x100000
PAGE_SIZE:4096
LOG2_PAGE_SIZE:12
LOG2_PAGE_TABLE_SIZE:9
page_table_levels:5
WARNING: physical memory size is smaller than virtual memory size
FDiP enabled with aggresivity 16

*** ChampSim Multicore Out-of-Order Simulator ***

Warmup Instructions: 50000000
Simulation Instructions: 100000000
Number of CPUs: 1
Small page size: 4096
Large page size: 2097152

CPU 0 Bimodal branch predictor
Basic BTB sets: 1024 ways: 8 indirect buffer size: 4096 RAS size: 64
Instruction page size distrubution: 0
Loading instruction page size distribution from /home/bsc/bsc018186/scratch/itp_asplos25_AE/dump/srv527_ap.pdst
Data page size distrubution: 0
Loading data page size distribution from /home/bsc/bsc018186/scratch/itp_asplos25_AE/dump/srv527_ap.pdst
cpu0_L2C IP-based stride prefetcher
cpu0_L1D next line prefetcher
cpu0_L1I next line prefetcher
Off-chip DRAM Size: 4 GiB Channels: 1 Width: 64-bit Data Rate: 3200 MT/s
Heartbeat CPU 0 instructions: 10000002 cycles: 2500271 heartbeat IPC: 3.99957 cumulative IPC: 3.99957 (Simulation time: 0 hr 0 min 34 sec) 
Heartbeat CPU 0 instructions: 20000002 cycles: 5000322 heartbeat IPC: 3.99992 cumulative IPC: 3.99975 (Simulation time: 0 hr 1 min 10 sec) 
Heartbeat CPU 0 instructions: 30000000 cycles: 7500957 heartbeat IPC: 3.99899 cumulative IPC: 3.99949 (Simulation time: 0 hr 1 min 47 sec) 
Heartbeat CPU 0 instructions: 40000002 cycles: 10001179 heartbeat IPC: 3.99965 cumulative IPC: 3.99953 (Simulation time: 0 hr 2 min 23 sec) 
Heartbeat CPU 0 instructions: 50000003 cycles: 12502585 heartbeat IPC: 3.99776 cumulative IPC: 3.99918 (Simulation time: 0 hr 2 min 59 sec) 
Warmup finished CPU 0 instructions: 50000003 cycles: 12502586 cumulative IPC: 3.99918 (Simulation time: 0 hr 2 min 59 sec) 

Warmup complete CPU 0 instructions: 50000003 cycles: 12502586 (Simulation time: 0 hr 2 min 59 sec) 

Heartbeat CPU 0 instructions: 60000004 cycles: 28631922 heartbeat IPC: 0.619989 cumulative IPC: 0.619989 (Simulation time: 0 hr 4 min 0 sec) 
Heartbeat CPU 0 instructions: 70000000 cycles: 46141930 heartbeat IPC: 0.571102 cumulative IPC: 0.594542 (Simulation time: 0 hr 5 min 4 sec) 
Heartbeat CPU 0 instructions: 80000000 cycles: 64071448 heartbeat IPC: 0.55774 cumulative IPC: 0.581747 (Simulation time: 0 hr 6 min 7 sec) 
Heartbeat CPU 0 instructions: 90000002 cycles: 80148164 heartbeat IPC: 0.622018 cumulative IPC: 0.591318 (Simulation time: 0 hr 7 min 9 sec) 
Heartbeat CPU 0 instructions: 100000003 cycles: 96153393 heartbeat IPC: 0.624796 cumulative IPC: 0.597723 (Simulation time: 0 hr 8 min 10 sec) 
*** Reached end of trace: /gpfs/projects/bsc18/MN4/bsc18/romol/ChampSim/traces/qualcomm_srv/srv527_ap.champsimtrace.xz
Heartbeat CPU 0 instructions: 110000000 cycles: 113522533 heartbeat IPC: 0.575734 cumulative IPC: 0.593943 (Simulation time: 0 hr 9 min 14 sec) 
Heartbeat CPU 0 instructions: 120000001 cycles: 130890108 heartbeat IPC: 0.575786 cumulative IPC: 0.591279 (Simulation time: 0 hr 10 min 17 sec) 
Heartbeat CPU 0 instructions: 130000001 cycles: 149261226 heartbeat IPC: 0.544333 cumulative IPC: 0.584973 (Simulation time: 0 hr 11 min 21 sec) 
Heartbeat CPU 0 instructions: 140000001 cycles: 165035980 heartbeat IPC: 0.633925 cumulative IPC: 0.590035 (Simulation time: 0 hr 12 min 22 sec) 
Heartbeat CPU 0 instructions: 150000003 cycles: 182186448 heartbeat IPC: 0.583075 cumulative IPC: 0.589332 (Simulation time: 0 hr 13 min 26 sec) 
Simulation finished CPU 0 instructions: 100000000 cycles: 169683863 cumulative IPC: 0.589332 (Simulation time: 0 hr 13 min 26 sec) 

Simulation complete CPU 0 instructions: 100000000 cycles: 169683863 (Simulation time: 0 hr 13 min 26 sec) 


ChampSim completed all CPUs

Saving instructions large page distribution to /home/bsc/bsc018186/scratch/itp_asplos25_AE/dump/srv527_ap.pdst...
Saving data large page distribution to /home/bsc/bsc018186/scratch/itp_asplos25_AE/dump/srv527_ap.pdst...
=== Simulation ===
CPU 0 runs /gpfs/projects/bsc18/MN4/bsc18/romol/ChampSim/traces/qualcomm_srv/srv527_ap.champsimtrace.xz

Region of Interest Statistics

CPU 0 cumulative IPC: 0.589332 instructions: 100000000 cycles: 169683863
CPU 0 Branch Prediction Accuracy: 82.8884% MPKI: 28.8941 Average ROB Occupancy at Mispredict: 12.1745
Branch type MPKI
BRANCH_DIRECT_JUMP: 1.01524
BRANCH_INDIRECT: 14.7113
BRANCH_CONDITIONAL: 9.65228
BRANCH_DIRECT_CALL: 1.8001
BRANCH_INDIRECT_CALL: 0.455261
BRANCH_RETURN: 1.25997

Instructions large pages: 0
Instructions small pages: 1134
Large page distribution for instructions: 0%

Data large pages: 0
Data small pages: 9370
Large page distribution for data: 0%

cpu0_L1I TOTAL       ACCESS:   31994165  HIT:   24906255  MISS:    7087910  iACCESS:   31994165  iHIT:   24906255  iMISS:    7087910  dACCESS:          0  dHIT:          0  dMISS:          0  itACCESS:          0  itHIT:          0  itMISS:          0  dtACCESS:          0  dtHIT:          0  dtMISS:          0
cpu0_L1I LOAD         ACCESS:    9153133  HIT:    7164845  MISS:    1988288  iACCESS:    9153133  iHIT:    7164845  iMISS:    1988288  dACCESS:          0  dHIT:          0  dMISS:          0  itACCESS:          0  itHIT:          0  itMISS:          0  dtACCESS:          0  dtHIT:          0  dtMISS:          0
cpu0_L1I RFO          ACCESS:          0  HIT:          0  MISS:          0  iACCESS:          0  iHIT:          0  iMISS:          0  dACCESS:          0  dHIT:          0  dMISS:          0  itACCESS:          0  itHIT:          0  itMISS:          0  dtACCESS:          0  dtHIT:          0  dtMISS:          0
cpu0_L1I PREFETCH     ACCESS:   22841032  HIT:   17741410  MISS:    5099622  iACCESS:   22841032  iHIT:   17741410  iMISS:    5099622  dACCESS:          0  dHIT:          0  dMISS:          0  itACCESS:          0  itHIT:          0  itMISS:          0  dtACCESS:          0  dtHIT:          0  dtMISS:          0
cpu0_L1I WRITE        ACCESS:          0  HIT:          0  MISS:          0  iACCESS:          0  iHIT:          0  iMISS:          0  dACCESS:          0  dHIT:          0  dMISS:          0  itACCESS:          0  itHIT:          0  itMISS:          0  dtACCESS:          0  dtHIT:          0  dtMISS:          0
cpu0_L1I TRANSLATION  ACCESS:          0  HIT:          0  MISS:          0  iACCESS:          0  iHIT:          0  iMISS:          0  dACCESS:          0  dHIT:          0  dMISS:          0  itACCESS:          0  itHIT:          0  itMISS:          0  dtACCESS:          0  dtHIT:          0  dtMISS:          0
cpu0_L1I PREFETCH  REQUESTED:   25073245  ISSUED:   25073244  CROSSED:          0  USEFUL:    1724693  USELESS:     563055
cpu0_L1I AVERAGE iMISS LATENCY: 16.655 cycles
cpu0_L1I AVERAGE dMISS LATENCY: 0 cycles
cpu0_L1I AVERAGE itMISS LATENCY: 0 cycles
cpu0_L1I AVERAGE dtMISS LATENCY: 0 cycles
cpu0_L1I PAGE CROSSINGS (TLB HIT):         0 
cpu0_L1I PAGE CROSSINGS (TLB MISS):         0 
cpu0_L1I AVERAGE MISS LATENCY: 16.655 cycles
cpu0_ITLB TOTAL       ACCESS:   26944000  HIT:   25179537  MISS:    1764463  iACCESS:   26944000  iHIT:   25179537  iMISS:    1764463  dACCESS:          0  dHIT:          0  dMISS:          0  itACCESS:          0  itHIT:          0  itMISS:          0  dtACCESS:          0  dtHIT:          0  dtMISS:          0
cpu0_ITLB LOAD         ACCESS:   26944000  HIT:   25179537  MISS:    1764463  iACCESS:   26944000  iHIT:   25179537  iMISS:    1764463  dACCESS:          0  dHIT:          0  dMISS:          0  itACCESS:          0  itHIT:          0  itMISS:          0  dtACCESS:          0  dtHIT:          0  dtMISS:          0
cpu0_ITLB RFO          ACCESS:          0  HIT:          0  MISS:          0  iACCESS:          0  iHIT:          0  iMISS:          0  dACCESS:          0  dHIT:          0  dMISS:          0  itACCESS:          0  itHIT:          0  itMISS:          0  dtACCESS:          0  dtHIT:          0  dtMISS:          0
cpu0_ITLB PREFETCH     ACCESS:          0  HIT:          0  MISS:          0  iACCESS:          0  iHIT:          0  iMISS:          0  dACCESS:          0  dHIT:          0  dMISS:          0  itACCESS:          0  itHIT:          0  itMISS:          0  dtACCESS:          0  dtHIT:          0  dtMISS:          0
cpu0_ITLB WRITE        ACCESS:          0  HIT:          0  MISS:          0  iACCESS:          0  iHIT:          0  iMISS:          0  dACCESS:          0  dHIT:          0  dMISS:          0  itACCESS:          0  itHIT:          0  itMISS:          0  dtACCESS:          0  dtHIT:          0  dtMISS:          0
cpu0_ITLB TRANSLATION  ACCESS:          0  HIT:          0  MISS:          0  iACCESS:          0  iHIT:          0  iMISS:          0  dACCESS:          0  dHIT:          0  dMISS:          0  itACCESS:          0  itHIT:          0  itMISS:          0  dtACCESS:          0  dtHIT:          0  dtMISS:          0
cpu0_ITLB PREFETCH  REQUESTED:          0  ISSUED:          0  CROSSED:          0  USEFUL:     285212  USELESS:      53374
cpu0_ITLB AVERAGE iMISS LATENCY: 6.48741 cycles
cpu0_ITLB AVERAGE dMISS LATENCY: 0 cycles
cpu0_ITLB AVERAGE itMISS LATENCY: 0 cycles
cpu0_ITLB AVERAGE dtMISS LATENCY: 0 cycles
cpu0_ITLB PAGE CROSSINGS (TLB HIT):         0 
cpu0_ITLB PAGE CROSSINGS (TLB MISS):         0 
cpu0_ITLB AVERAGE MISS LATENCY: 6.48741 cycles
cpu0_DTLB TOTAL       ACCESS:   27988452  HIT:   26184888  MISS:    1803564  iACCESS:          0  iHIT:          0  iMISS:          0  dACCESS:   27988452  dHIT:   26184888  dMISS:    1803564  itACCESS:          0  itHIT:          0  itMISS:          0  dtACCESS:          0  dtHIT:          0  dtMISS:          0
cpu0_DTLB LOAD         ACCESS:   27988452  HIT:   26184888  MISS:    1803564  iACCESS:          0  iHIT:          0  iMISS:          0  dACCESS:   27988452  dHIT:   26184888  dMISS:    1803564  itACCESS:          0  itHIT:          0  itMISS:          0  dtACCESS:          0  dtHIT:          0  dtMISS:          0
cpu0_DTLB RFO          ACCESS:          0  HIT:          0  MISS:          0  iACCESS:          0  iHIT:          0  iMISS:          0  dACCESS:          0  dHIT:          0  dMISS:          0  itACCESS:          0  itHIT:          0  itMISS:          0  dtACCESS:          0  dtHIT:          0  dtMISS:          0
cpu0_DTLB PREFETCH     ACCESS:          0  HIT:          0  MISS:          0  iACCESS:          0  iHIT:          0  iMISS:          0  dACCESS:          0  dHIT:          0  dMISS:          0  itACCESS:          0  itHIT:          0  itMISS:          0  dtACCESS:          0  dtHIT:          0  dtMISS:          0
cpu0_DTLB WRITE        ACCESS:          0  HIT:          0  MISS:          0  iACCESS:          0  iHIT:          0  iMISS:          0  dACCESS:          0  dHIT:          0  dMISS:          0  itACCESS:          0  itHIT:          0  itMISS:          0  dtACCESS:          0  dtHIT:          0  dtMISS:          0
cpu0_DTLB TRANSLATION  ACCESS:          0  HIT:          0  MISS:          0  iACCESS:          0  iHIT:          0  iMISS:          0  dACCESS:          0  dHIT:          0  dMISS:          0  itACCESS:          0  itHIT:          0  itMISS:          0  dtACCESS:          0  dtHIT:          0  dtMISS:          0
cpu0_DTLB PREFETCH  REQUESTED:          0  ISSUED:          0  CROSSED:          0  USEFUL:          0  USELESS:          0
cpu0_DTLB AVERAGE iMISS LATENCY: 0 cycles
cpu0_DTLB AVERAGE dMISS LATENCY: 18.8433 cycles
cpu0_DTLB AVERAGE itMISS LATENCY: 0 cycles
cpu0_DTLB AVERAGE dtMISS LATENCY: 0 cycles
cpu0_DTLB PAGE CROSSINGS (TLB HIT):         0 
cpu0_DTLB PAGE CROSSINGS (TLB MISS):         0 
cpu0_DTLB AVERAGE MISS LATENCY: 18.8433 cycles
cpu0_STLB TOTAL       ACCESS:    1405430  HIT:    1219309  MISS:     186121  iACCESS:     338593  iHIT:     272738  iMISS:      65855  dACCESS:    1066837  dHIT:     946571  dMISS:     120266  itACCESS:          0  itHIT:          0  itMISS:          0  dtACCESS:          0  dtHIT:          0  dtMISS:          0
cpu0_STLB LOAD         ACCESS:    1405430  HIT:    1219309  MISS:     186121  iACCESS:     338593  iHIT:     272738  iMISS:      65855  dACCESS:    1066837  dHIT:     946571  dMISS:     120266  itACCESS:          0  itHIT:          0  itMISS:          0  dtACCESS:          0  dtHIT:          0  dtMISS:          0
cpu0_STLB RFO          ACCESS:          0  HIT:          0  MISS:          0  iACCESS:          0  iHIT:          0  iMISS:          0  dACCESS:          0  dHIT:          0  dMISS:          0  itACCESS:          0  itHIT:          0  itMISS:          0  dtACCESS:          0  dtHIT:          0  dtMISS:          0
cpu0_STLB PREFETCH     ACCESS:          0  HIT:          0  MISS:          0  iACCESS:          0  iHIT:          0  iMISS:          0  dACCESS:          0  dHIT:          0  dMISS:          0  itACCESS:          0  itHIT:          0  itMISS:          0  dtACCESS:          0  dtHIT:          0  dtMISS:          0
cpu0_STLB WRITE        ACCESS:          0  HIT:          0  MISS:          0  iACCESS:          0  iHIT:          0  iMISS:          0  dACCESS:          0  dHIT:          0  dMISS:          0  itACCESS:          0  itHIT:          0  itMISS:          0  dtACCESS:          0  dtHIT:          0  dtMISS:          0
cpu0_STLB TRANSLATION  ACCESS:          0  HIT:          0  MISS:          0  iACCESS:          0  iHIT:          0  iMISS:          0  dACCESS:          0  dHIT:          0  dMISS:          0  itACCESS:          0  itHIT:          0  itMISS:          0  dtACCESS:          0  dtHIT:          0  dtMISS:          0
cpu0_STLB PREFETCH  REQUESTED:          0  ISSUED:          0  CROSSED:          0  USEFUL:          0  USELESS:          0
cpu0_STLB AVERAGE iMISS LATENCY: 47.0366 cycles
cpu0_STLB AVERAGE dMISS LATENCY: 136.741 cycles
cpu0_STLB AVERAGE itMISS LATENCY: 0 cycles
cpu0_STLB AVERAGE dtMISS LATENCY: 0 cycles
cpu0_STLB PAGE CROSSINGS (TLB HIT):         0 
cpu0_STLB PAGE CROSSINGS (TLB MISS):         0 
cpu0_STLB AVERAGE MISS LATENCY: 183.778 cycles
cpu0_L1D TOTAL       ACCESS:   42302294  HIT:   38482180  MISS:    3820114  iACCESS:          0  iHIT:          0  iMISS:          0  dACCESS:   42060291  dHIT:   38460457  dMISS:    3599834  itACCESS:      71158  itHIT:      10456  itMISS:      60702  dtACCESS:     170845  dtHIT:      11267  dtMISS:     159578
cpu0_L1D LOAD         ACCESS:   19729988  HIT:   18156963  MISS:    1573025  iACCESS:          0  iHIT:          0  iMISS:          0  dACCESS:   19729988  dHIT:   18156963  dMISS:    1573025  itACCESS:          0  itHIT:          0  itMISS:          0  dtACCESS:          0  dtHIT:          0  dtMISS:          0
cpu0_L1D RFO          ACCESS:          0  HIT:          0  MISS:          0  iACCESS:          0  iHIT:          0  iMISS:          0  dACCESS:          0  dHIT:          0  dMISS:          0  itACCESS:          0  itHIT:          0  itMISS:          0  dtACCESS:          0  dtHIT:          0  dtMISS:          0
cpu0_L1D PREFETCH     ACCESS:   12479680  HIT:   11053878  MISS:    1425802  iACCESS:          0  iHIT:          0  iMISS:          0  dACCESS:   12479680  dHIT:   11053878  dMISS:    1425802  itACCESS:          0  itHIT:          0  itMISS:          0  dtACCESS:          0  dtHIT:          0  dtMISS:          0
cpu0_L1D WRITE        ACCESS:    9850623  HIT:    9249616  MISS:     601007  iACCESS:          0  iHIT:          0  iMISS:          0  dACCESS:    9850623  dHIT:    9249616  dMISS:     601007  itACCESS:          0  itHIT:          0  itMISS:          0  dtACCESS:          0  dtHIT:          0  dtMISS:          0
cpu0_L1D TRANSLATION  ACCESS:     242003  HIT:      21723  MISS:     220280  iACCESS:          0  iHIT:          0  iMISS:          0  dACCESS:          0  dHIT:          0  dMISS:          0  itACCESS:      71158  itHIT:      10456  itMISS:      60702  dtACCESS:     170845  dtHIT:      11267  dtMISS:     159578
cpu0_L1D PREFETCH  REQUESTED:   19729988  ISSUED:   17881002  CROSSED:          0  USEFUL:     298135  USELESS:     619496
cpu0_L1D AVERAGE iMISS LATENCY: 0 cycles
cpu0_L1D AVERAGE dMISS LATENCY: 37.5515 cycles
cpu0_L1D AVERAGE itMISS LATENCY: 2.14065 cycles
cpu0_L1D AVERAGE dtMISS LATENCY: 6.04788 cycles
cpu0_L1D PAGE CROSSINGS (TLB HIT):         0 
cpu0_L1D PAGE CROSSINGS (TLB MISS):         0 
cpu0_L1D AVERAGE MISS LATENCY: 45.74 cycles
cpu0_L2C TOTAL       ACCESS:    6417047  HIT:    3518700  MISS:    2898347  iACCESS:    2969283  iHIT:    1935718  iMISS:    1033565  dACCESS:    3234581  dHIT:    1553073  dMISS:    1681508  itACCESS:      60584  itHIT:      10832  itMISS:      49752  dtACCESS:     152599  dtHIT:      19077  dtMISS:     133522
cpu0_L2C LOAD         ACCESS:    1560544  HIT:     889335  MISS:     671209  iACCESS:     716534  iHIT:     495180  iMISS:     221354  dACCESS:     844010  dHIT:     394155  dMISS:     449855  itACCESS:          0  itHIT:          0  itMISS:          0  dtACCESS:          0  dtHIT:          0  dtMISS:          0
cpu0_L2C RFO          ACCESS:     140675  HIT:      62676  MISS:      77999  iACCESS:          0  iHIT:          0  iMISS:          0  dACCESS:     140675  dHIT:      62676  dMISS:      77999  itACCESS:          0  itHIT:          0  itMISS:          0  dtACCESS:          0  dtHIT:          0  dtMISS:          0
cpu0_L2C PREFETCH     ACCESS:    4234364  HIT:    2269487  MISS:    1964877  iACCESS:    2252749  iHIT:    1440538  iMISS:     812211  dACCESS:    1981615  dHIT:     828949  dMISS:    1152666  itACCESS:          0  itHIT:          0  itMISS:          0  dtACCESS:          0  dtHIT:          0  dtMISS:          0
cpu0_L2C WRITE        ACCESS:     268281  HIT:     267293  MISS:        988  iACCESS:          0  iHIT:          0  iMISS:          0  dACCESS:     268281  dHIT:     267293  dMISS:        988  itACCESS:          0  itHIT:          0  itMISS:          0  dtACCESS:          0  dtHIT:          0  dtMISS:          0
cpu0_L2C TRANSLATION  ACCESS:     213183  HIT:      29909  MISS:     183274  iACCESS:          0  iHIT:          0  iMISS:          0  dACCESS:          0  dHIT:          0  dMISS:          0  itACCESS:      60584  itHIT:      10832  itMISS:      49752  dtACCESS:     152599  dtHIT:      19077  dtMISS:     133522
cpu0_L2C PREFETCH  REQUESTED:    1294393  ISSUED:    1294393  CROSSED:          0  USEFUL:     311432  USELESS:     244080
cpu0_L2C AVERAGE iMISS LATENCY: 31.5514 cycles
cpu0_L2C AVERAGE dMISS LATENCY: 62.5154 cycles
cpu0_L2C AVERAGE itMISS LATENCY: 2.61547 cycles
cpu0_L2C AVERAGE dtMISS LATENCY: 7.44777 cycles
cpu0_L2C PAGE CROSSINGS (TLB HIT):         0 
cpu0_L2C PAGE CROSSINGS (TLB MISS):         0 
cpu0_L2C AVERAGE MISS LATENCY: 104.13 cycles
LLC TOTAL       ACCESS:    2892829  HIT:    1355876  MISS:    1536953  iACCESS:     966342  iHIT:     474414  iMISS:     491928  dACCESS:    1743213  dHIT:     838640  dMISS:     904573  itACCESS:      49752  itHIT:      11696  itMISS:      38056  dtACCESS:     133522  dtHIT:      31126  dtMISS:     102396
LLC LOAD         ACCESS:     668229  HIT:     326509  MISS:     341720  iACCESS:     220290  iHIT:     109161  iMISS:     111129  dACCESS:     447939  dHIT:     217348  dMISS:     230591  itACCESS:          0  itHIT:          0  itMISS:          0  dtACCESS:          0  dtHIT:          0  dtMISS:          0
LLC RFO          ACCESS:      77999  HIT:      29390  MISS:      48609  iACCESS:          0  iHIT:          0  iMISS:          0  dACCESS:      77999  dHIT:      29390  dMISS:      48609  itACCESS:          0  itHIT:          0  itMISS:          0  dtACCESS:          0  dtHIT:          0  dtMISS:          0
LLC PREFETCH     ACCESS:    1823849  HIT:     825409  MISS:     998440  iACCESS:     746052  iHIT:     365253  iMISS:     380799  dACCESS:    1077797  dHIT:     460156  dMISS:     617641  itACCESS:          0  itHIT:          0  itMISS:          0  dtACCESS:          0  dtHIT:          0  dtMISS:          0
LLC WRITE        ACCESS:     139478  HIT:     131746  MISS:       7732  iACCESS:          0  iHIT:          0  iMISS:          0  dACCESS:     139478  dHIT:     131746  dMISS:       7732  itACCESS:          0  itHIT:          0  itMISS:          0  dtACCESS:          0  dtHIT:          0  dtMISS:          0
LLC TRANSLATION  ACCESS:     183274  HIT:      42822  MISS:     140452  iACCESS:          0  iHIT:          0  iMISS:          0  dACCESS:          0  dHIT:          0  dMISS:          0  itACCESS:      49752  itHIT:      11696  itMISS:      38056  dtACCESS:     133522  dtHIT:      31126  dtMISS:     102396
LLC PREFETCH  REQUESTED:          0  ISSUED:          0  CROSSED:          0  USEFUL:          0  USELESS:          0
LLC AVERAGE iMISS LATENCY: 47.1968 cycles
LLC AVERAGE dMISS LATENCY: 97.9942 cycles
LLC AVERAGE itMISS LATENCY: 4.29424 cycles
LLC AVERAGE dtMISS LATENCY: 12.3357 cycles
LLC PAGE CROSSINGS (TLB HIT):         0 
LLC PAGE CROSSINGS (TLB MISS):         0 
LLC AVERAGE MISS LATENCY: 161.821 cycles

PageTableWalker TOTAL       ACCESS:      96211  
PageTableWalker AVERAGE LATENCY: 5.00415 cycles
PageTableWalker TOTAL LATENCY: 481454 cycles

DRAM Statistics
Channel 0
 RQ ROW_BUFFER_HIT:     418026
  ROW_BUFFER_MISS:    1109149
 AVG DBUS CONGESTED CYCLE:    3.64373
 WQ ROW_BUFFER_HIT:      33696
  ROW_BUFFER_MISS:      28085  FULL:          0

