last_page:0x200000000000000
VMEM_RES_CAP:0x100000
PAGE_SIZE:4096
LOG2_PAGE_SIZE:12
LOG2_PAGE_TABLE_SIZE:9
page_table_levels:5
WARNING: physical memory size is smaller than virtual memory size
FDiP enabled with aggresivity 16

*** ChampSim Multicore Out-of-Order Simulator ***

Warmup Instructions: 50000000
Simulation Instructions: 100000000
Number of CPUs: 1
Small page size: 4096
Large page size: 2097152

CPU 0 Bimodal branch predictor
Basic BTB sets: 1024 ways: 8 indirect buffer size: 4096 RAS size: 64
Instruction page size distrubution: 0
Loading instruction page size distribution from /home/bsc/bsc018186/scratch/itp_asplos25_AE/dump/srv598_ap.pdst
Data page size distrubution: 0
Loading data page size distribution from /home/bsc/bsc018186/scratch/itp_asplos25_AE/dump/srv598_ap.pdst
cpu0_L2C IP-based stride prefetcher
cpu0_L1D next line prefetcher
CHiRPing...
cpu0_L1I next line prefetcher
Off-chip DRAM Size: 4 GiB Channels: 1 Width: 64-bit Data Rate: 3200 MT/s
Heartbeat CPU 0 instructions: 10000002 cycles: 2500151 heartbeat IPC: 3.99976 cumulative IPC: 3.99976 (Simulation time: 0 hr 0 min 38 sec) 
Heartbeat CPU 0 instructions: 20000002 cycles: 5000151 heartbeat IPC: 4 cumulative IPC: 3.99988 (Simulation time: 0 hr 1 min 18 sec) 
Heartbeat CPU 0 instructions: 30000001 cycles: 7500154 heartbeat IPC: 4 cumulative IPC: 3.99992 (Simulation time: 0 hr 2 min 0 sec) 
Heartbeat CPU 0 instructions: 40000001 cycles: 10000222 heartbeat IPC: 3.9999 cumulative IPC: 3.99992 (Simulation time: 0 hr 2 min 42 sec) 
Heartbeat CPU 0 instructions: 50000003 cycles: 12500282 heartbeat IPC: 3.99991 cumulative IPC: 3.99992 (Simulation time: 0 hr 3 min 23 sec) 
Warmup finished CPU 0 instructions: 50000003 cycles: 12500283 cumulative IPC: 3.99991 (Simulation time: 0 hr 3 min 23 sec) 

Warmup complete CPU 0 instructions: 50000003 cycles: 12500283 (Simulation time: 0 hr 3 min 23 sec) 

Heartbeat CPU 0 instructions: 60000003 cycles: 27024254 heartbeat IPC: 0.688517 cumulative IPC: 0.688517 (Simulation time: 0 hr 4 min 28 sec) 
Heartbeat CPU 0 instructions: 70000002 cycles: 41104348 heartbeat IPC: 0.710223 cumulative IPC: 0.699202 (Simulation time: 0 hr 5 min 33 sec) 
Heartbeat CPU 0 instructions: 80000004 cycles: 56290674 heartbeat IPC: 0.658488 cumulative IPC: 0.685082 (Simulation time: 0 hr 6 min 39 sec) 
Heartbeat CPU 0 instructions: 90000000 cycles: 69718955 heartbeat IPC: 0.744697 cumulative IPC: 0.699073 (Simulation time: 0 hr 7 min 43 sec) 
Heartbeat CPU 0 instructions: 100000002 cycles: 84508940 heartbeat IPC: 0.676134 cumulative IPC: 0.694361 (Simulation time: 0 hr 8 min 50 sec) 
*** Reached end of trace: /gpfs/projects/bsc18/MN4/bsc18/romol/ChampSim/traces/qualcomm_srv/srv598_ap.champsimtrace.xz
Heartbeat CPU 0 instructions: 110000002 cycles: 98869293 heartbeat IPC: 0.696362 cumulative IPC: 0.694694 (Simulation time: 0 hr 9 min 57 sec) 
Heartbeat CPU 0 instructions: 120000000 cycles: 113548687 heartbeat IPC: 0.681227 cumulative IPC: 0.692738 (Simulation time: 0 hr 11 min 4 sec) 
Heartbeat CPU 0 instructions: 130000002 cycles: 127864418 heartbeat IPC: 0.698533 cumulative IPC: 0.693457 (Simulation time: 0 hr 12 min 11 sec) 
Heartbeat CPU 0 instructions: 140000000 cycles: 141990920 heartbeat IPC: 0.70789 cumulative IPC: 0.695031 (Simulation time: 0 hr 13 min 17 sec) 
Heartbeat CPU 0 instructions: 150000003 cycles: 155797574 heartbeat IPC: 0.724289 cumulative IPC: 0.69785 (Simulation time: 0 hr 14 min 23 sec) 
Simulation finished CPU 0 instructions: 100000000 cycles: 143297292 cumulative IPC: 0.69785 (Simulation time: 0 hr 14 min 23 sec) 

Simulation complete CPU 0 instructions: 100000000 cycles: 143297292 (Simulation time: 0 hr 14 min 23 sec) 


ChampSim completed all CPUs

Saving instructions large page distribution to /home/bsc/bsc018186/scratch/itp_asplos25_AE/dump/srv598_ap.pdst...
Saving data large page distribution to /home/bsc/bsc018186/scratch/itp_asplos25_AE/dump/srv598_ap.pdst...
=== Simulation ===
CPU 0 runs /gpfs/projects/bsc18/MN4/bsc18/romol/ChampSim/traces/qualcomm_srv/srv598_ap.champsimtrace.xz

Region of Interest Statistics

CPU 0 cumulative IPC: 0.69785 instructions: 100000000 cycles: 143297292
CPU 0 Branch Prediction Accuracy: 82.4702% MPKI: 31.394 Average ROB Occupancy at Mispredict: 12.7804
Branch type MPKI
BRANCH_DIRECT_JUMP: 1.06634
BRANCH_INDIRECT: 16.184
BRANCH_CONDITIONAL: 10.3233
BRANCH_DIRECT_CALL: 1.92845
BRANCH_INDIRECT_CALL: 0.514911
BRANCH_RETURN: 1.3772

Instructions large pages: 0
Instructions small pages: 1014
Large page distribution for instructions: 0%

Data large pages: 0
Data small pages: 9552
Large page distribution for data: 0%

cpu0_L1I TOTAL       ACCESS:   35687542  HIT:   27260638  MISS:    8426904  iACCESS:   35687542  iHIT:   27260638  iMISS:    8426904  dACCESS:          0  dHIT:          0  dMISS:          0  itACCESS:          0  itHIT:          0  itMISS:          0  dtACCESS:          0  dtHIT:          0  dtMISS:          0
cpu0_L1I LOAD         ACCESS:   10460667  HIT:    8108039  MISS:    2352628  iACCESS:   10460667  iHIT:    8108039  iMISS:    2352628  dACCESS:          0  dHIT:          0  dMISS:          0  itACCESS:          0  itHIT:          0  itMISS:          0  dtACCESS:          0  dtHIT:          0  dtMISS:          0
cpu0_L1I RFO          ACCESS:          0  HIT:          0  MISS:          0  iACCESS:          0  iHIT:          0  iMISS:          0  dACCESS:          0  dHIT:          0  dMISS:          0  itACCESS:          0  itHIT:          0  itMISS:          0  dtACCESS:          0  dtHIT:          0  dtMISS:          0
cpu0_L1I PREFETCH     ACCESS:   25226875  HIT:   19152599  MISS:    6074276  iACCESS:   25226875  iHIT:   19152599  iMISS:    6074276  dACCESS:          0  dHIT:          0  dMISS:          0  itACCESS:          0  itHIT:          0  itMISS:          0  dtACCESS:          0  dtHIT:          0  dtMISS:          0
cpu0_L1I WRITE        ACCESS:          0  HIT:          0  MISS:          0  iACCESS:          0  iHIT:          0  iMISS:          0  dACCESS:          0  dHIT:          0  dMISS:          0  itACCESS:          0  itHIT:          0  itMISS:          0  dtACCESS:          0  dtHIT:          0  dtMISS:          0
cpu0_L1I TRANSLATION  ACCESS:          0  HIT:          0  MISS:          0  iACCESS:          0  iHIT:          0  iMISS:          0  dACCESS:          0  dHIT:          0  dMISS:          0  itACCESS:          0  itHIT:          0  itMISS:          0  dtACCESS:          0  dtHIT:          0  dtMISS:          0
cpu0_L1I PREFETCH  REQUESTED:   27532577  ISSUED:   27531877  CROSSED:          0  USEFUL:    1953080  USELESS:     627390
cpu0_L1I AVERAGE iMISS LATENCY: 13.1277 cycles
cpu0_L1I AVERAGE dMISS LATENCY: 0 cycles
cpu0_L1I AVERAGE itMISS LATENCY: 0 cycles
cpu0_L1I AVERAGE dtMISS LATENCY: 0 cycles
cpu0_L1I PAGE CROSSINGS (TLB HIT):         0 
cpu0_L1I PAGE CROSSINGS (TLB MISS):         0 
cpu0_L1I AVERAGE MISS LATENCY: 13.1277 cycles
cpu0_ITLB TOTAL       ACCESS:   29532161  HIT:   27603744  MISS:    1928417  iACCESS:   29532161  iHIT:   27603744  iMISS:    1928417  dACCESS:          0  dHIT:          0  dMISS:          0  itACCESS:          0  itHIT:          0  itMISS:          0  dtACCESS:          0  dtHIT:          0  dtMISS:          0
cpu0_ITLB LOAD         ACCESS:   29532161  HIT:   27603744  MISS:    1928417  iACCESS:   29532161  iHIT:   27603744  iMISS:    1928417  dACCESS:          0  dHIT:          0  dMISS:          0  itACCESS:          0  itHIT:          0  itMISS:          0  dtACCESS:          0  dtHIT:          0  dtMISS:          0
cpu0_ITLB RFO          ACCESS:          0  HIT:          0  MISS:          0  iACCESS:          0  iHIT:          0  iMISS:          0  dACCESS:          0  dHIT:          0  dMISS:          0  itACCESS:          0  itHIT:          0  itMISS:          0  dtACCESS:          0  dtHIT:          0  dtMISS:          0
cpu0_ITLB PREFETCH     ACCESS:          0  HIT:          0  MISS:          0  iACCESS:          0  iHIT:          0  iMISS:          0  dACCESS:          0  dHIT:          0  dMISS:          0  itACCESS:          0  itHIT:          0  itMISS:          0  dtACCESS:          0  dtHIT:          0  dtMISS:          0
cpu0_ITLB WRITE        ACCESS:          0  HIT:          0  MISS:          0  iACCESS:          0  iHIT:          0  iMISS:          0  dACCESS:          0  dHIT:          0  dMISS:          0  itACCESS:          0  itHIT:          0  itMISS:          0  dtACCESS:          0  dtHIT:          0  dtMISS:          0
cpu0_ITLB TRANSLATION  ACCESS:          0  HIT:          0  MISS:          0  iACCESS:          0  iHIT:          0  iMISS:          0  dACCESS:          0  dHIT:          0  dMISS:          0  itACCESS:          0  itHIT:          0  itMISS:          0  dtACCESS:          0  dtHIT:          0  dtMISS:          0
cpu0_ITLB PREFETCH  REQUESTED:          0  ISSUED:          0  CROSSED:          0  USEFUL:     318241  USELESS:      63504
cpu0_ITLB AVERAGE iMISS LATENCY: 3.1942 cycles
cpu0_ITLB AVERAGE dMISS LATENCY: 0 cycles
cpu0_ITLB AVERAGE itMISS LATENCY: 0 cycles
cpu0_ITLB AVERAGE dtMISS LATENCY: 0 cycles
cpu0_ITLB PAGE CROSSINGS (TLB HIT):         0 
cpu0_ITLB PAGE CROSSINGS (TLB MISS):         0 
cpu0_ITLB AVERAGE MISS LATENCY: 3.1942 cycles
cpu0_DTLB TOTAL       ACCESS:   27911341  HIT:   25967645  MISS:    1943696  iACCESS:          0  iHIT:          0  iMISS:          0  dACCESS:   27911341  dHIT:   25967645  dMISS:    1943696  itACCESS:          0  itHIT:          0  itMISS:          0  dtACCESS:          0  dtHIT:          0  dtMISS:          0
cpu0_DTLB LOAD         ACCESS:   27911341  HIT:   25967645  MISS:    1943696  iACCESS:          0  iHIT:          0  iMISS:          0  dACCESS:   27911341  dHIT:   25967645  dMISS:    1943696  itACCESS:          0  itHIT:          0  itMISS:          0  dtACCESS:          0  dtHIT:          0  dtMISS:          0
cpu0_DTLB RFO          ACCESS:          0  HIT:          0  MISS:          0  iACCESS:          0  iHIT:          0  iMISS:          0  dACCESS:          0  dHIT:          0  dMISS:          0  itACCESS:          0  itHIT:          0  itMISS:          0  dtACCESS:          0  dtHIT:          0  dtMISS:          0
cpu0_DTLB PREFETCH     ACCESS:          0  HIT:          0  MISS:          0  iACCESS:          0  iHIT:          0  iMISS:          0  dACCESS:          0  dHIT:          0  dMISS:          0  itACCESS:          0  itHIT:          0  itMISS:          0  dtACCESS:          0  dtHIT:          0  dtMISS:          0
cpu0_DTLB WRITE        ACCESS:          0  HIT:          0  MISS:          0  iACCESS:          0  iHIT:          0  iMISS:          0  dACCESS:          0  dHIT:          0  dMISS:          0  itACCESS:          0  itHIT:          0  itMISS:          0  dtACCESS:          0  dtHIT:          0  dtMISS:          0
cpu0_DTLB TRANSLATION  ACCESS:          0  HIT:          0  MISS:          0  iACCESS:          0  iHIT:          0  iMISS:          0  dACCESS:          0  dHIT:          0  dMISS:          0  itACCESS:          0  itHIT:          0  itMISS:          0  dtACCESS:          0  dtHIT:          0  dtMISS:          0
cpu0_DTLB PREFETCH  REQUESTED:          0  ISSUED:          0  CROSSED:          0  USEFUL:          0  USELESS:          0
cpu0_DTLB AVERAGE iMISS LATENCY: 0 cycles
cpu0_DTLB AVERAGE dMISS LATENCY: 10.671 cycles
cpu0_DTLB AVERAGE itMISS LATENCY: 0 cycles
cpu0_DTLB AVERAGE dtMISS LATENCY: 0 cycles
cpu0_DTLB PAGE CROSSINGS (TLB HIT):         0 
cpu0_DTLB PAGE CROSSINGS (TLB MISS):         0 
cpu0_DTLB AVERAGE MISS LATENCY: 10.671 cycles
cpu0_STLB TOTAL       ACCESS:    1567299  HIT:    1395301  MISS:     171998  iACCESS:     381747  iHIT:     321544  iMISS:      60203  dACCESS:    1185552  dHIT:    1073757  dMISS:     111795  itACCESS:          0  itHIT:          0  itMISS:          0  dtACCESS:          0  dtHIT:          0  dtMISS:          0
cpu0_STLB LOAD         ACCESS:    1567299  HIT:    1395301  MISS:     171998  iACCESS:     381747  iHIT:     321544  iMISS:      60203  dACCESS:    1185552  dHIT:    1073757  dMISS:     111795  itACCESS:          0  itHIT:          0  itMISS:          0  dtACCESS:          0  dtHIT:          0  dtMISS:          0
cpu0_STLB RFO          ACCESS:          0  HIT:          0  MISS:          0  iACCESS:          0  iHIT:          0  iMISS:          0  dACCESS:          0  dHIT:          0  dMISS:          0  itACCESS:          0  itHIT:          0  itMISS:          0  dtACCESS:          0  dtHIT:          0  dtMISS:          0
cpu0_STLB PREFETCH     ACCESS:          0  HIT:          0  MISS:          0  iACCESS:          0  iHIT:          0  iMISS:          0  dACCESS:          0  dHIT:          0  dMISS:          0  itACCESS:          0  itHIT:          0  itMISS:          0  dtACCESS:          0  dtHIT:          0  dtMISS:          0
cpu0_STLB WRITE        ACCESS:          0  HIT:          0  MISS:          0  iACCESS:          0  iHIT:          0  iMISS:          0  dACCESS:          0  dHIT:          0  dMISS:          0  itACCESS:          0  itHIT:          0  itMISS:          0  dtACCESS:          0  dtHIT:          0  dtMISS:          0
cpu0_STLB TRANSLATION  ACCESS:          0  HIT:          0  MISS:          0  iACCESS:          0  iHIT:          0  iMISS:          0  dACCESS:          0  dHIT:          0  dMISS:          0  itACCESS:          0  itHIT:          0  itMISS:          0  dtACCESS:          0  dtHIT:          0  dtMISS:          0
cpu0_STLB PREFETCH  REQUESTED:          0  ISSUED:          0  CROSSED:          0  USEFUL:          0  USELESS:          0
cpu0_STLB AVERAGE iMISS LATENCY: 18.2875 cycles
cpu0_STLB AVERAGE dMISS LATENCY: 65.5194 cycles
cpu0_STLB AVERAGE itMISS LATENCY: 0 cycles
cpu0_STLB AVERAGE dtMISS LATENCY: 0 cycles
cpu0_STLB PAGE CROSSINGS (TLB HIT):         0 
cpu0_STLB PAGE CROSSINGS (TLB MISS):         0 
cpu0_STLB AVERAGE MISS LATENCY: 83.8069 cycles
cpu0_L1D TOTAL       ACCESS:   41723262  HIT:   38232116  MISS:    3491146  iACCESS:          0  iHIT:          0  iMISS:          0  dACCESS:   41487673  dHIT:   38211862  dMISS:    3275811  itACCESS:      65309  itHIT:       9306  itMISS:      56003  dtACCESS:     170280  dtHIT:      10948  dtMISS:     159332
cpu0_L1D LOAD         ACCESS:   19107767  HIT:   17614768  MISS:    1492999  iACCESS:          0  iHIT:          0  iMISS:          0  dACCESS:   19107767  dHIT:   17614768  dMISS:    1492999  itACCESS:          0  itHIT:          0  itMISS:          0  dtACCESS:          0  dtHIT:          0  dtMISS:          0
cpu0_L1D RFO          ACCESS:          0  HIT:          0  MISS:          0  iACCESS:          0  iHIT:          0  iMISS:          0  dACCESS:          0  dHIT:          0  dMISS:          0  itACCESS:          0  itHIT:          0  itMISS:          0  dtACCESS:          0  dtHIT:          0  dtMISS:          0
cpu0_L1D PREFETCH     ACCESS:   12209426  HIT:   10846498  MISS:    1362928  iACCESS:          0  iHIT:          0  iMISS:          0  dACCESS:   12209426  dHIT:   10846498  dMISS:    1362928  itACCESS:          0  itHIT:          0  itMISS:          0  dtACCESS:          0  dtHIT:          0  dtMISS:          0
cpu0_L1D WRITE        ACCESS:   10170480  HIT:    9750596  MISS:     419884  iACCESS:          0  iHIT:          0  iMISS:          0  dACCESS:   10170480  dHIT:    9750596  dMISS:     419884  itACCESS:          0  itHIT:          0  itMISS:          0  dtACCESS:          0  dtHIT:          0  dtMISS:          0
cpu0_L1D TRANSLATION  ACCESS:     235589  HIT:      20254  MISS:     215335  iACCESS:          0  iHIT:          0  iMISS:          0  dACCESS:          0  dHIT:          0  dMISS:          0  itACCESS:      65309  itHIT:       9306  itMISS:      56003  dtACCESS:     170280  dtHIT:      10948  dtMISS:     159332
cpu0_L1D PREFETCH  REQUESTED:   19107767  ISSUED:   17049659  CROSSED:          0  USEFUL:     309249  USELESS:     709632
cpu0_L1D AVERAGE iMISS LATENCY: 0 cycles
cpu0_L1D AVERAGE dMISS LATENCY: 33.2414 cycles
cpu0_L1D AVERAGE itMISS LATENCY: 0.750343 cycles
cpu0_L1D AVERAGE dtMISS LATENCY: 2.52466 cycles
cpu0_L1D PAGE CROSSINGS (TLB HIT):         0 
cpu0_L1D PAGE CROSSINGS (TLB MISS):         0 
cpu0_L1D AVERAGE MISS LATENCY: 36.5164 cycles
cpu0_L2C TOTAL       ACCESS:    7058191  HIT:    1698504  MISS:    5359687  iACCESS:    3316237  iHIT:     858602  iMISS:    2457635  dACCESS:    3538022  dHIT:     722324  dMISS:    2815698  itACCESS:      56003  itHIT:      39178  itMISS:      16825  dtACCESS:     147929  dtHIT:      78400  dtMISS:      69529
cpu0_L2C LOAD         ACCESS:    1708842  HIT:     286859  MISS:    1421983  iACCESS:     774677  iHIT:     135571  iMISS:     639106  dACCESS:     934165  dHIT:     151288  dMISS:     782877  itACCESS:          0  itHIT:          0  itMISS:          0  dtACCESS:          0  dtHIT:          0  dtMISS:          0
cpu0_L2C RFO          ACCESS:     159663  HIT:      53183  MISS:     106480  iACCESS:          0  iHIT:          0  iMISS:          0  dACCESS:     159663  dHIT:      53183  dMISS:     106480  itACCESS:          0  itHIT:          0  itMISS:          0  dtACCESS:          0  dtHIT:          0  dtMISS:          0
cpu0_L2C PREFETCH     ACCESS:    4702866  HIT:    1100978  MISS:    3601888  iACCESS:    2541560  iHIT:     723031  iMISS:    1818529  dACCESS:    2161306  dHIT:     377947  dMISS:    1783359  itACCESS:          0  itHIT:          0  itMISS:          0  dtACCESS:          0  dtHIT:          0  dtMISS:          0
cpu0_L2C WRITE        ACCESS:     282888  HIT:     139906  MISS:     142982  iACCESS:          0  iHIT:          0  iMISS:          0  dACCESS:     282888  dHIT:     139906  dMISS:     142982  itACCESS:          0  itHIT:          0  itMISS:          0  dtACCESS:          0  dtHIT:          0  dtMISS:          0
cpu0_L2C TRANSLATION  ACCESS:     203932  HIT:     117578  MISS:      86354  iACCESS:          0  iHIT:          0  iMISS:          0  dACCESS:          0  dHIT:          0  dMISS:          0  itACCESS:      56003  itHIT:      39178  itMISS:      16825  dtACCESS:     147929  dtHIT:      78400  dtMISS:      69529
cpu0_L2C PREFETCH  REQUESTED:    1409170  ISSUED:    1409170  CROSSED:          0  USEFUL:     418627  USELESS:     379862
cpu0_L2C AVERAGE iMISS LATENCY: 14.8594 cycles
cpu0_L2C AVERAGE dMISS LATENCY: 25.0582 cycles
cpu0_L2C AVERAGE itMISS LATENCY: 0.391306 cycles
cpu0_L2C AVERAGE dtMISS LATENCY: 1.38157 cycles
cpu0_L2C PAGE CROSSINGS (TLB HIT):         0 
cpu0_L2C PAGE CROSSINGS (TLB MISS):         0 
cpu0_L2C AVERAGE MISS LATENCY: 41.6904 cycles
LLC TOTAL       ACCESS:    5243129  HIT:    4447468  MISS:     795661  iACCESS:    2403379  iHIT:    2177561  iMISS:     225818  dACCESS:    2753396  dHIT:    2227663  dMISS:     525733  itACCESS:      16825  itHIT:       6527  itMISS:      10298  dtACCESS:      69529  dtHIT:      35717  dtMISS:      33812
LLC LOAD         ACCESS:    1420130  HIT:    1243275  MISS:     176855  iACCESS:     637692  iHIT:     590165  iMISS:      47527  dACCESS:     782438  dHIT:     653110  dMISS:     129328  itACCESS:          0  itHIT:          0  itMISS:          0  dtACCESS:          0  dtHIT:          0  dtMISS:          0
LLC RFO          ACCESS:     106476  HIT:      71990  MISS:      34486  iACCESS:          0  iHIT:          0  iMISS:          0  dACCESS:     106476  dHIT:      71990  dMISS:      34486  itACCESS:          0  itHIT:          0  itMISS:          0  dtACCESS:          0  dtHIT:          0  dtMISS:          0
LLC PREFETCH     ACCESS:    3495923  HIT:    2964797  MISS:     531126  iACCESS:    1765687  iHIT:    1587396  iMISS:     178291  dACCESS:    1730236  dHIT:    1377401  dMISS:     352835  itACCESS:          0  itHIT:          0  itMISS:          0  dtACCESS:          0  dtHIT:          0  dtMISS:          0
LLC WRITE        ACCESS:     134246  HIT:     125162  MISS:       9084  iACCESS:          0  iHIT:          0  iMISS:          0  dACCESS:     134246  dHIT:     125162  dMISS:       9084  itACCESS:          0  itHIT:          0  itMISS:          0  dtACCESS:          0  dtHIT:          0  dtMISS:          0
LLC TRANSLATION  ACCESS:      86354  HIT:      42244  MISS:      44110  iACCESS:          0  iHIT:          0  iMISS:          0  dACCESS:          0  dHIT:          0  dMISS:          0  itACCESS:      16825  itHIT:       6527  itMISS:      10298  dtACCESS:      69529  dtHIT:      35717  dtMISS:      33812
LLC PREFETCH  REQUESTED:          0  ISSUED:          0  CROSSED:          0  USEFUL:          0  USELESS:          0
LLC AVERAGE iMISS LATENCY: 41.8375 cycles
LLC AVERAGE dMISS LATENCY: 105.244 cycles
LLC AVERAGE itMISS LATENCY: 2.22197 cycles
LLC AVERAGE dtMISS LATENCY: 7.60523 cycles
LLC PAGE CROSSINGS (TLB HIT):         0 
LLC PAGE CROSSINGS (TLB MISS):         0 
LLC AVERAGE MISS LATENCY: 156.908 cycles

PageTableWalker TOTAL       ACCESS:      86767  
PageTableWalker AVERAGE LATENCY: 4.56383 cycles
PageTableWalker TOTAL LATENCY: 395989 cycles

DRAM Statistics
Channel 0
 RQ ROW_BUFFER_HIT:     214365
  ROW_BUFFER_MISS:     572165
 AVG DBUS CONGESTED CYCLE:    3.62702
 WQ ROW_BUFFER_HIT:      15451
  ROW_BUFFER_MISS:      20699  FULL:          0

