last_page:0x200000000000000
VMEM_RES_CAP:0x100000
PAGE_SIZE:4096
LOG2_PAGE_SIZE:12
LOG2_PAGE_TABLE_SIZE:9
page_table_levels:5
WARNING: physical memory size is smaller than virtual memory size
FDiP enabled with aggresivity 16

*** ChampSim Multicore Out-of-Order Simulator ***

Warmup Instructions: 50000000
Simulation Instructions: 100000000
Number of CPUs: 1
Small page size: 4096
Large page size: 2097152

CPU 0 Bimodal branch predictor
Basic BTB sets: 1024 ways: 8 indirect buffer size: 4096 RAS size: 64
Instruction page size distrubution: 0
Loading instruction page size distribution from /home/bsc/bsc018186/scratch/itp_asplos25_AE/dump/srv662_ap.pdst
Data page size distrubution: 0
Loading data page size distribution from /home/bsc/bsc018186/scratch/itp_asplos25_AE/dump/srv662_ap.pdst
cpu0_L2C IP-based stride prefetcher
cpu0_L1D next line prefetcher
CHiRPing...
cpu0_L1I next line prefetcher
Off-chip DRAM Size: 4 GiB Channels: 1 Width: 64-bit Data Rate: 3200 MT/s
Heartbeat CPU 0 instructions: 10000002 cycles: 2500069 heartbeat IPC: 3.9999 cumulative IPC: 3.9999 (Simulation time: 0 hr 0 min 38 sec) 
Heartbeat CPU 0 instructions: 20000001 cycles: 5000117 heartbeat IPC: 3.99993 cumulative IPC: 3.99991 (Simulation time: 0 hr 1 min 19 sec) 
Heartbeat CPU 0 instructions: 30000001 cycles: 7500270 heartbeat IPC: 3.99976 cumulative IPC: 3.99986 (Simulation time: 0 hr 2 min 0 sec) 
Heartbeat CPU 0 instructions: 40000003 cycles: 10000330 heartbeat IPC: 3.99991 cumulative IPC: 3.99987 (Simulation time: 0 hr 2 min 41 sec) 
Heartbeat CPU 0 instructions: 50000002 cycles: 12500361 heartbeat IPC: 3.99996 cumulative IPC: 3.99989 (Simulation time: 0 hr 3 min 23 sec) 
Warmup finished CPU 0 instructions: 50000002 cycles: 12500362 cumulative IPC: 3.99989 (Simulation time: 0 hr 3 min 23 sec) 

Warmup complete CPU 0 instructions: 50000002 cycles: 12500362 (Simulation time: 0 hr 3 min 23 sec) 

Heartbeat CPU 0 instructions: 60000002 cycles: 28359248 heartbeat IPC: 0.630562 cumulative IPC: 0.630562 (Simulation time: 0 hr 4 min 29 sec) 
Heartbeat CPU 0 instructions: 70000001 cycles: 43429324 heartbeat IPC: 0.663567 cumulative IPC: 0.646644 (Simulation time: 0 hr 5 min 35 sec) 
Heartbeat CPU 0 instructions: 80000000 cycles: 59956138 heartbeat IPC: 0.605078 cumulative IPC: 0.632168 (Simulation time: 0 hr 6 min 43 sec) 
Heartbeat CPU 0 instructions: 90000003 cycles: 76436886 heartbeat IPC: 0.606769 cumulative IPC: 0.625621 (Simulation time: 0 hr 7 min 52 sec) 
Heartbeat CPU 0 instructions: 100000000 cycles: 92109510 heartbeat IPC: 0.638056 cumulative IPC: 0.628069 (Simulation time: 0 hr 9 min 1 sec) 
*** Reached end of trace: /gpfs/projects/bsc18/MN4/bsc18/romol/ChampSim/traces/qualcomm_srv/srv662_ap.champsimtrace.xz
Heartbeat CPU 0 instructions: 110000003 cycles: 107303328 heartbeat IPC: 0.658163 cumulative IPC: 0.632892 (Simulation time: 0 hr 10 min 8 sec) 
Heartbeat CPU 0 instructions: 120000000 cycles: 122847753 heartbeat IPC: 0.643318 cumulative IPC: 0.634361 (Simulation time: 0 hr 11 min 16 sec) 
Heartbeat CPU 0 instructions: 130000004 cycles: 138551561 heartbeat IPC: 0.636789 cumulative IPC: 0.634663 (Simulation time: 0 hr 12 min 25 sec) 
Heartbeat CPU 0 instructions: 140000001 cycles: 154487489 heartbeat IPC: 0.627513 cumulative IPC: 0.633861 (Simulation time: 0 hr 13 min 33 sec) 
Heartbeat CPU 0 instructions: 150000000 cycles: 170864558 heartbeat IPC: 0.61061 cumulative IPC: 0.631456 (Simulation time: 0 hr 14 min 43 sec) 
Simulation finished CPU 0 instructions: 100000001 cycles: 158364198 cumulative IPC: 0.631456 (Simulation time: 0 hr 14 min 43 sec) 

Simulation complete CPU 0 instructions: 100000001 cycles: 158364198 (Simulation time: 0 hr 14 min 43 sec) 


ChampSim completed all CPUs

Saving instructions large page distribution to /home/bsc/bsc018186/scratch/itp_asplos25_AE/dump/srv662_ap.pdst...
Saving data large page distribution to /home/bsc/bsc018186/scratch/itp_asplos25_AE/dump/srv662_ap.pdst...
=== Simulation ===
CPU 0 runs /gpfs/projects/bsc18/MN4/bsc18/romol/ChampSim/traces/qualcomm_srv/srv662_ap.champsimtrace.xz

Region of Interest Statistics

CPU 0 cumulative IPC: 0.631456 instructions: 100000001 cycles: 158364198
CPU 0 Branch Prediction Accuracy: 82.6449% MPKI: 31.087 Average ROB Occupancy at Mispredict: 13.0805
Branch type MPKI
BRANCH_DIRECT_JUMP: 1.05382
BRANCH_INDIRECT: 16.0046
BRANCH_CONDITIONAL: 10.2307
BRANCH_DIRECT_CALL: 1.90915
BRANCH_INDIRECT_CALL: 0.52116
BRANCH_RETURN: 1.36761

Instructions large pages: 0
Instructions small pages: 975
Large page distribution for instructions: 0%

Data large pages: 0
Data small pages: 9556
Large page distribution for data: 0%

cpu0_L1I TOTAL       ACCESS:   35195791  HIT:   27322523  MISS:    7873268  iACCESS:   35195791  iHIT:   27322523  iMISS:    7873268  dACCESS:          0  dHIT:          0  dMISS:          0  itACCESS:          0  itHIT:          0  itMISS:          0  dtACCESS:          0  dtHIT:          0  dtMISS:          0
cpu0_L1I LOAD         ACCESS:   10328305  HIT:    8115420  MISS:    2212885  iACCESS:   10328305  iHIT:    8115420  iMISS:    2212885  dACCESS:          0  dHIT:          0  dMISS:          0  itACCESS:          0  itHIT:          0  itMISS:          0  dtACCESS:          0  dtHIT:          0  dtMISS:          0
cpu0_L1I RFO          ACCESS:          0  HIT:          0  MISS:          0  iACCESS:          0  iHIT:          0  iMISS:          0  dACCESS:          0  dHIT:          0  dMISS:          0  itACCESS:          0  itHIT:          0  itMISS:          0  dtACCESS:          0  dtHIT:          0  dtMISS:          0
cpu0_L1I PREFETCH     ACCESS:   24867486  HIT:   19207103  MISS:    5660383  iACCESS:   24867486  iHIT:   19207103  iMISS:    5660383  dACCESS:          0  dHIT:          0  dMISS:          0  itACCESS:          0  itHIT:          0  itMISS:          0  dtACCESS:          0  dtHIT:          0  dtMISS:          0
cpu0_L1I WRITE        ACCESS:          0  HIT:          0  MISS:          0  iACCESS:          0  iHIT:          0  iMISS:          0  dACCESS:          0  dHIT:          0  dMISS:          0  itACCESS:          0  itHIT:          0  itMISS:          0  dtACCESS:          0  dtHIT:          0  dtMISS:          0
cpu0_L1I TRANSLATION  ACCESS:          0  HIT:          0  MISS:          0  iACCESS:          0  iHIT:          0  iMISS:          0  dACCESS:          0  dHIT:          0  dMISS:          0  itACCESS:          0  itHIT:          0  itMISS:          0  dtACCESS:          0  dtHIT:          0  dtMISS:          0
cpu0_L1I PREFETCH  REQUESTED:   27400186  ISSUED:   27400186  CROSSED:          0  USEFUL:    1937634  USELESS:     630284
cpu0_L1I AVERAGE iMISS LATENCY: 13.4479 cycles
cpu0_L1I AVERAGE dMISS LATENCY: 0 cycles
cpu0_L1I AVERAGE itMISS LATENCY: 0 cycles
cpu0_L1I AVERAGE dtMISS LATENCY: 0 cycles
cpu0_L1I PAGE CROSSINGS (TLB HIT):         0 
cpu0_L1I PAGE CROSSINGS (TLB MISS):         0 
cpu0_L1I AVERAGE MISS LATENCY: 13.4479 cycles
cpu0_ITLB TOTAL       ACCESS:   29391547  HIT:   27441835  MISS:    1949712  iACCESS:   29391547  iHIT:   27441835  iMISS:    1949712  dACCESS:          0  dHIT:          0  dMISS:          0  itACCESS:          0  itHIT:          0  itMISS:          0  dtACCESS:          0  dtHIT:          0  dtMISS:          0
cpu0_ITLB LOAD         ACCESS:   29391547  HIT:   27441835  MISS:    1949712  iACCESS:   29391547  iHIT:   27441835  iMISS:    1949712  dACCESS:          0  dHIT:          0  dMISS:          0  itACCESS:          0  itHIT:          0  itMISS:          0  dtACCESS:          0  dtHIT:          0  dtMISS:          0
cpu0_ITLB RFO          ACCESS:          0  HIT:          0  MISS:          0  iACCESS:          0  iHIT:          0  iMISS:          0  dACCESS:          0  dHIT:          0  dMISS:          0  itACCESS:          0  itHIT:          0  itMISS:          0  dtACCESS:          0  dtHIT:          0  dtMISS:          0
cpu0_ITLB PREFETCH     ACCESS:          0  HIT:          0  MISS:          0  iACCESS:          0  iHIT:          0  iMISS:          0  dACCESS:          0  dHIT:          0  dMISS:          0  itACCESS:          0  itHIT:          0  itMISS:          0  dtACCESS:          0  dtHIT:          0  dtMISS:          0
cpu0_ITLB WRITE        ACCESS:          0  HIT:          0  MISS:          0  iACCESS:          0  iHIT:          0  iMISS:          0  dACCESS:          0  dHIT:          0  dMISS:          0  itACCESS:          0  itHIT:          0  itMISS:          0  dtACCESS:          0  dtHIT:          0  dtMISS:          0
cpu0_ITLB TRANSLATION  ACCESS:          0  HIT:          0  MISS:          0  iACCESS:          0  iHIT:          0  iMISS:          0  dACCESS:          0  dHIT:          0  dMISS:          0  itACCESS:          0  itHIT:          0  itMISS:          0  dtACCESS:          0  dtHIT:          0  dtMISS:          0
cpu0_ITLB PREFETCH  REQUESTED:          0  ISSUED:          0  CROSSED:          0  USEFUL:     317497  USELESS:      64585
cpu0_ITLB AVERAGE iMISS LATENCY: 5.40506 cycles
cpu0_ITLB AVERAGE dMISS LATENCY: 0 cycles
cpu0_ITLB AVERAGE itMISS LATENCY: 0 cycles
cpu0_ITLB AVERAGE dtMISS LATENCY: 0 cycles
cpu0_ITLB PAGE CROSSINGS (TLB HIT):         0 
cpu0_ITLB PAGE CROSSINGS (TLB MISS):         0 
cpu0_ITLB AVERAGE MISS LATENCY: 5.40506 cycles
cpu0_DTLB TOTAL       ACCESS:   27817467  HIT:   25944560  MISS:    1872907  iACCESS:          0  iHIT:          0  iMISS:          0  dACCESS:   27817467  dHIT:   25944560  dMISS:    1872907  itACCESS:          0  itHIT:          0  itMISS:          0  dtACCESS:          0  dtHIT:          0  dtMISS:          0
cpu0_DTLB LOAD         ACCESS:   27817467  HIT:   25944560  MISS:    1872907  iACCESS:          0  iHIT:          0  iMISS:          0  dACCESS:   27817467  dHIT:   25944560  dMISS:    1872907  itACCESS:          0  itHIT:          0  itMISS:          0  dtACCESS:          0  dtHIT:          0  dtMISS:          0
cpu0_DTLB RFO          ACCESS:          0  HIT:          0  MISS:          0  iACCESS:          0  iHIT:          0  iMISS:          0  dACCESS:          0  dHIT:          0  dMISS:          0  itACCESS:          0  itHIT:          0  itMISS:          0  dtACCESS:          0  dtHIT:          0  dtMISS:          0
cpu0_DTLB PREFETCH     ACCESS:          0  HIT:          0  MISS:          0  iACCESS:          0  iHIT:          0  iMISS:          0  dACCESS:          0  dHIT:          0  dMISS:          0  itACCESS:          0  itHIT:          0  itMISS:          0  dtACCESS:          0  dtHIT:          0  dtMISS:          0
cpu0_DTLB WRITE        ACCESS:          0  HIT:          0  MISS:          0  iACCESS:          0  iHIT:          0  iMISS:          0  dACCESS:          0  dHIT:          0  dMISS:          0  itACCESS:          0  itHIT:          0  itMISS:          0  dtACCESS:          0  dtHIT:          0  dtMISS:          0
cpu0_DTLB TRANSLATION  ACCESS:          0  HIT:          0  MISS:          0  iACCESS:          0  iHIT:          0  iMISS:          0  dACCESS:          0  dHIT:          0  dMISS:          0  itACCESS:          0  itHIT:          0  itMISS:          0  dtACCESS:          0  dtHIT:          0  dtMISS:          0
cpu0_DTLB PREFETCH  REQUESTED:          0  ISSUED:          0  CROSSED:          0  USEFUL:          0  USELESS:          0
cpu0_DTLB AVERAGE iMISS LATENCY: 0 cycles
cpu0_DTLB AVERAGE dMISS LATENCY: 16.499 cycles
cpu0_DTLB AVERAGE itMISS LATENCY: 0 cycles
cpu0_DTLB AVERAGE dtMISS LATENCY: 0 cycles
cpu0_DTLB PAGE CROSSINGS (TLB HIT):         0 
cpu0_DTLB PAGE CROSSINGS (TLB MISS):         0 
cpu0_DTLB AVERAGE MISS LATENCY: 16.499 cycles
cpu0_STLB TOTAL       ACCESS:    1521429  HIT:    1350019  MISS:     171410  iACCESS:     382087  iHIT:     322836  iMISS:      59251  dACCESS:    1139342  dHIT:    1027183  dMISS:     112159  itACCESS:          0  itHIT:          0  itMISS:          0  dtACCESS:          0  dtHIT:          0  dtMISS:          0
cpu0_STLB LOAD         ACCESS:    1521429  HIT:    1350019  MISS:     171410  iACCESS:     382087  iHIT:     322836  iMISS:      59251  dACCESS:    1139342  dHIT:    1027183  dMISS:     112159  itACCESS:          0  itHIT:          0  itMISS:          0  dtACCESS:          0  dtHIT:          0  dtMISS:          0
cpu0_STLB RFO          ACCESS:          0  HIT:          0  MISS:          0  iACCESS:          0  iHIT:          0  iMISS:          0  dACCESS:          0  dHIT:          0  dMISS:          0  itACCESS:          0  itHIT:          0  itMISS:          0  dtACCESS:          0  dtHIT:          0  dtMISS:          0
cpu0_STLB PREFETCH     ACCESS:          0  HIT:          0  MISS:          0  iACCESS:          0  iHIT:          0  iMISS:          0  dACCESS:          0  dHIT:          0  dMISS:          0  itACCESS:          0  itHIT:          0  itMISS:          0  dtACCESS:          0  dtHIT:          0  dtMISS:          0
cpu0_STLB WRITE        ACCESS:          0  HIT:          0  MISS:          0  iACCESS:          0  iHIT:          0  iMISS:          0  dACCESS:          0  dHIT:          0  dMISS:          0  itACCESS:          0  itHIT:          0  itMISS:          0  dtACCESS:          0  dtHIT:          0  dtMISS:          0
cpu0_STLB TRANSLATION  ACCESS:          0  HIT:          0  MISS:          0  iACCESS:          0  iHIT:          0  iMISS:          0  dACCESS:          0  dHIT:          0  dMISS:          0  itACCESS:          0  itHIT:          0  itMISS:          0  dtACCESS:          0  dtHIT:          0  dtMISS:          0
cpu0_STLB PREFETCH  REQUESTED:          0  ISSUED:          0  CROSSED:          0  USEFUL:          0  USELESS:          0
cpu0_STLB AVERAGE iMISS LATENCY: 43.8575 cycles
cpu0_STLB AVERAGE dMISS LATENCY: 127.154 cycles
cpu0_STLB AVERAGE itMISS LATENCY: 0 cycles
cpu0_STLB AVERAGE dtMISS LATENCY: 0 cycles
cpu0_STLB PAGE CROSSINGS (TLB HIT):         0 
cpu0_STLB PAGE CROSSINGS (TLB MISS):         0 
cpu0_STLB AVERAGE MISS LATENCY: 171.011 cycles
cpu0_L1D TOTAL       ACCESS:   41544116  HIT:   38098653  MISS:    3445463  iACCESS:          0  iHIT:          0  iMISS:          0  dACCESS:   41311989  dHIT:   38078737  dMISS:    3233252  itACCESS:      64258  itHIT:       9187  itMISS:      55071  dtACCESS:     167869  dtHIT:      10729  dtMISS:     157140
cpu0_L1D LOAD         ACCESS:   19019149  HIT:   17539630  MISS:    1479519  iACCESS:          0  iHIT:          0  iMISS:          0  dACCESS:   19019149  dHIT:   17539630  dMISS:    1479519  itACCESS:          0  itHIT:          0  itMISS:          0  dtACCESS:          0  dtHIT:          0  dtMISS:          0
cpu0_L1D RFO          ACCESS:          0  HIT:          0  MISS:          0  iACCESS:          0  iHIT:          0  iMISS:          0  dACCESS:          0  dHIT:          0  dMISS:          0  itACCESS:          0  itHIT:          0  itMISS:          0  dtACCESS:          0  dtHIT:          0  dtMISS:          0
cpu0_L1D PREFETCH     ACCESS:   12099554  HIT:   10774982  MISS:    1324572  iACCESS:          0  iHIT:          0  iMISS:          0  dACCESS:   12099554  dHIT:   10774982  dMISS:    1324572  itACCESS:          0  itHIT:          0  itMISS:          0  dtACCESS:          0  dtHIT:          0  dtMISS:          0
cpu0_L1D WRITE        ACCESS:   10193286  HIT:    9764125  MISS:     429161  iACCESS:          0  iHIT:          0  iMISS:          0  dACCESS:   10193286  dHIT:    9764125  dMISS:     429161  itACCESS:          0  itHIT:          0  itMISS:          0  dtACCESS:          0  dtHIT:          0  dtMISS:          0
cpu0_L1D TRANSLATION  ACCESS:     232127  HIT:      19916  MISS:     212211  iACCESS:          0  iHIT:          0  iMISS:          0  dACCESS:          0  dHIT:          0  dMISS:          0  itACCESS:      64258  itHIT:       9187  itMISS:      55071  dtACCESS:     167869  dtHIT:      10729  dtMISS:     157140
cpu0_L1D PREFETCH  REQUESTED:   19019149  ISSUED:   16902831  CROSSED:          0  USEFUL:     307428  USELESS:     705647
cpu0_L1D AVERAGE iMISS LATENCY: 0 cycles
cpu0_L1D AVERAGE dMISS LATENCY: 34.1259 cycles
cpu0_L1D AVERAGE itMISS LATENCY: 2.03346 cycles
cpu0_L1D AVERAGE dtMISS LATENCY: 5.62044 cycles
cpu0_L1D PAGE CROSSINGS (TLB HIT):         0 
cpu0_L1D PAGE CROSSINGS (TLB MISS):         0 
cpu0_L1D AVERAGE MISS LATENCY: 41.7798 cycles
cpu0_L2C TOTAL       ACCESS:    7036274  HIT:    4034756  MISS:    3001518  iACCESS:    3319442  iHIT:    2208497  iMISS:    1110945  dACCESS:    3513752  dHIT:    1800314  dMISS:    1713438  itACCESS:      55071  itHIT:       9191  itMISS:      45880  dtACCESS:     148009  dtHIT:      16754  dtMISS:     131255
cpu0_L2C LOAD         ACCESS:    1725492  HIT:    1027134  MISS:     698358  iACCESS:     790304  iHIT:     551924  iMISS:     238380  dACCESS:     935188  dHIT:     475210  dMISS:     459978  itACCESS:          0  itHIT:          0  itMISS:          0  dtACCESS:          0  dtHIT:          0  dtMISS:          0
cpu0_L2C RFO          ACCESS:     158296  HIT:      69938  MISS:      88358  iACCESS:          0  iHIT:          0  iMISS:          0  dACCESS:     158296  dHIT:      69938  dMISS:      88358  itACCESS:          0  itHIT:          0  itMISS:          0  dtACCESS:          0  dtHIT:          0  dtMISS:          0
cpu0_L2C PREFETCH     ACCESS:    4665773  HIT:    2629797  MISS:    2035976  iACCESS:    2529138  iHIT:    1656573  iMISS:     872565  dACCESS:    2136635  dHIT:     973224  dMISS:    1163411  itACCESS:          0  itHIT:          0  itMISS:          0  dtACCESS:          0  dtHIT:          0  dtMISS:          0
cpu0_L2C WRITE        ACCESS:     283633  HIT:     281942  MISS:       1691  iACCESS:          0  iHIT:          0  iMISS:          0  dACCESS:     283633  dHIT:     281942  dMISS:       1691  itACCESS:          0  itHIT:          0  itMISS:          0  dtACCESS:          0  dtHIT:          0  dtMISS:          0
cpu0_L2C TRANSLATION  ACCESS:     203080  HIT:      25945  MISS:     177135  iACCESS:          0  iHIT:          0  iMISS:          0  dACCESS:          0  dHIT:          0  dMISS:          0  itACCESS:      55071  itHIT:       9191  itMISS:      45880  dtACCESS:     148009  dtHIT:      16754  dtMISS:     131255
cpu0_L2C PREFETCH  REQUESTED:    1386056  ISSUED:    1386056  CROSSED:          0  USEFUL:     327204  USELESS:     240817
cpu0_L2C AVERAGE iMISS LATENCY: 25.1355 cycles
cpu0_L2C AVERAGE dMISS LATENCY: 46.8639 cycles
cpu0_L2C AVERAGE itMISS LATENCY: 2.15328 cycles
cpu0_L2C AVERAGE dtMISS LATENCY: 5.96022 cycles
cpu0_L2C PAGE CROSSINGS (TLB HIT):         0 
cpu0_L2C PAGE CROSSINGS (TLB MISS):         0 
cpu0_L2C AVERAGE MISS LATENCY: 80.1128 cycles
LLC TOTAL       ACCESS:    3024110  HIT:    1868450  MISS:    1155660  iACCESS:    1052761  iHIT:     683472  iMISS:     369289  dACCESS:    1794214  dHIT:    1124139  dMISS:     670075  itACCESS:      45880  itHIT:      13690  itMISS:      32190  dtACCESS:     131255  dtHIT:      47149  dtMISS:      84106
LLC LOAD         ACCESS:     696538  HIT:     451694  MISS:     244844  iACCESS:     236967  iHIT:     156295  iMISS:      80672  dACCESS:     459571  dHIT:     295399  dMISS:     164172  itACCESS:          0  itHIT:          0  itMISS:          0  dtACCESS:          0  dtHIT:          0  dtMISS:          0
LLC RFO          ACCESS:      88353  HIT:      45670  MISS:      42683  iACCESS:          0  iHIT:          0  iMISS:          0  dACCESS:      88353  dHIT:      45670  dMISS:      42683  itACCESS:          0  itHIT:          0  itMISS:          0  dtACCESS:          0  dtHIT:          0  dtMISS:          0
LLC PREFETCH     ACCESS:    1922186  HIT:    1177212  MISS:     744974  iACCESS:     815794  iHIT:     527177  iMISS:     288617  dACCESS:    1106392  dHIT:     650035  dMISS:     456357  itACCESS:          0  itHIT:          0  itMISS:          0  dtACCESS:          0  dtHIT:          0  dtMISS:          0
LLC WRITE        ACCESS:     139898  HIT:     133035  MISS:       6863  iACCESS:          0  iHIT:          0  iMISS:          0  dACCESS:     139898  dHIT:     133035  dMISS:       6863  itACCESS:          0  itHIT:          0  itMISS:          0  dtACCESS:          0  dtHIT:          0  dtMISS:          0
LLC TRANSLATION  ACCESS:     177135  HIT:      60839  MISS:     116296  iACCESS:          0  iHIT:          0  iMISS:          0  dACCESS:          0  dHIT:          0  dMISS:          0  itACCESS:      45880  itHIT:      13690  itMISS:      32190  dtACCESS:     131255  dtHIT:      47149  dtMISS:      84106
LLC PREFETCH  REQUESTED:          0  ISSUED:          0  CROSSED:          0  USEFUL:          0  USELESS:          0
LLC AVERAGE iMISS LATENCY: 47.5391 cycles
LLC AVERAGE dMISS LATENCY: 94.0138 cycles
LLC AVERAGE itMISS LATENCY: 4.81293 cycles
LLC AVERAGE dtMISS LATENCY: 13.2557 cycles
LLC PAGE CROSSINGS (TLB HIT):         0 
LLC PAGE CROSSINGS (TLB MISS):         0 
LLC AVERAGE MISS LATENCY: 159.622 cycles

PageTableWalker TOTAL       ACCESS:      87128  
PageTableWalker AVERAGE LATENCY: 5.29651 cycles
PageTableWalker TOTAL LATENCY: 461474 cycles

DRAM Statistics
Channel 0
 RQ ROW_BUFFER_HIT:     284957
  ROW_BUFFER_MISS:     863762
 AVG DBUS CONGESTED CYCLE:     3.6215
 WQ ROW_BUFFER_HIT:      22593
  ROW_BUFFER_MISS:      21296  FULL:          0

