last_page:0x200000000000000
VMEM_RES_CAP:0x100000
PAGE_SIZE:4096
LOG2_PAGE_SIZE:12
LOG2_PAGE_TABLE_SIZE:9
page_table_levels:5
WARNING: physical memory size is smaller than virtual memory size
FDiP enabled with aggresivity 16

*** ChampSim Multicore Out-of-Order Simulator ***

Warmup Instructions: 50000000
Simulation Instructions: 100000000
Number of CPUs: 1
Small page size: 4096
Large page size: 2097152

CPU 0 Bimodal branch predictor
Basic BTB sets: 1024 ways: 8 indirect buffer size: 4096 RAS size: 64
Instruction page size distrubution: 0
Loading instruction page size distribution from /home/bsc/bsc018186/scratch/itp_asplos25_AE/dump/srv612_ap.pdst
Data page size distrubution: 0
Loading data page size distribution from /home/bsc/bsc018186/scratch/itp_asplos25_AE/dump/srv612_ap.pdst
cpu0_L2C IP-based stride prefetcher
cpu0_L1D next line prefetcher
cpu0_L1I next line prefetcher
Off-chip DRAM Size: 4 GiB Channels: 1 Width: 64-bit Data Rate: 3200 MT/s
Heartbeat CPU 0 instructions: 10000004 cycles: 2781593 heartbeat IPC: 3.59507 cumulative IPC: 3.59507 (Simulation time: 0 hr 0 min 34 sec) 
Heartbeat CPU 0 instructions: 20000001 cycles: 5759676 heartbeat IPC: 3.35787 cumulative IPC: 3.47242 (Simulation time: 0 hr 1 min 10 sec) 
Heartbeat CPU 0 instructions: 30000001 cycles: 8545733 heartbeat IPC: 3.58931 cumulative IPC: 3.51053 (Simulation time: 0 hr 1 min 42 sec) 
Heartbeat CPU 0 instructions: 40000002 cycles: 11194741 heartbeat IPC: 3.775 cumulative IPC: 3.57311 (Simulation time: 0 hr 2 min 13 sec) 
Heartbeat CPU 0 instructions: 50000002 cycles: 13719199 heartbeat IPC: 3.96125 cumulative IPC: 3.64453 (Simulation time: 0 hr 2 min 43 sec) 
Warmup finished CPU 0 instructions: 50000002 cycles: 13719200 cumulative IPC: 3.64453 (Simulation time: 0 hr 2 min 43 sec) 

Warmup complete CPU 0 instructions: 50000002 cycles: 13719200 (Simulation time: 0 hr 2 min 43 sec) 

Heartbeat CPU 0 instructions: 60000001 cycles: 55735688 heartbeat IPC: 0.238002 cumulative IPC: 0.238002 (Simulation time: 0 hr 4 min 41 sec) 
Heartbeat CPU 0 instructions: 70000004 cycles: 111258394 heartbeat IPC: 0.180107 cumulative IPC: 0.205046 (Simulation time: 0 hr 7 min 11 sec) 
Heartbeat CPU 0 instructions: 80000000 cycles: 145350912 heartbeat IPC: 0.29332 cumulative IPC: 0.227909 (Simulation time: 0 hr 8 min 54 sec) 
Heartbeat CPU 0 instructions: 90000003 cycles: 174632547 heartbeat IPC: 0.341512 cumulative IPC: 0.248582 (Simulation time: 0 hr 10 min 26 sec) 
Heartbeat CPU 0 instructions: 100000001 cycles: 197895072 heartbeat IPC: 0.429876 cumulative IPC: 0.27148 (Simulation time: 0 hr 11 min 46 sec) 
*** Reached end of trace: /gpfs/projects/bsc18/MN4/bsc18/romol/ChampSim/traces/qualcomm_srv/srv612_ap.champsimtrace.xz
Heartbeat CPU 0 instructions: 110000000 cycles: 212006056 heartbeat IPC: 0.708668 cumulative IPC: 0.302592 (Simulation time: 0 hr 12 min 50 sec) 
Heartbeat CPU 0 instructions: 120000004 cycles: 220630873 heartbeat IPC: 1.15945 cumulative IPC: 0.338309 (Simulation time: 0 hr 13 min 41 sec) 
Heartbeat CPU 0 instructions: 130000004 cycles: 228862459 heartbeat IPC: 1.21484 cumulative IPC: 0.371846 (Simulation time: 0 hr 14 min 30 sec) 
Heartbeat CPU 0 instructions: 140000000 cycles: 236513212 heartbeat IPC: 1.30707 cumulative IPC: 0.403961 (Simulation time: 0 hr 15 min 15 sec) 
Heartbeat CPU 0 instructions: 150000000 cycles: 257487687 heartbeat IPC: 0.47677 cumulative IPC: 0.410226 (Simulation time: 0 hr 16 min 27 sec) 
Simulation finished CPU 0 instructions: 100000000 cycles: 243768490 cumulative IPC: 0.410226 (Simulation time: 0 hr 16 min 27 sec) 

Simulation complete CPU 0 instructions: 100000000 cycles: 243768490 (Simulation time: 0 hr 16 min 27 sec) 


ChampSim completed all CPUs

Saving instructions large page distribution to /home/bsc/bsc018186/scratch/itp_asplos25_AE/dump/srv612_ap.pdst...
Saving data large page distribution to /home/bsc/bsc018186/scratch/itp_asplos25_AE/dump/srv612_ap.pdst...
=== Simulation ===
CPU 0 runs /gpfs/projects/bsc18/MN4/bsc18/romol/ChampSim/traces/qualcomm_srv/srv612_ap.champsimtrace.xz

Region of Interest Statistics

CPU 0 cumulative IPC: 0.410226 instructions: 100000000 cycles: 243768490
CPU 0 Branch Prediction Accuracy: 96.6997% MPKI: 7.15989 Average ROB Occupancy at Mispredict: 84.2303
Branch type MPKI
BRANCH_DIRECT_JUMP: 0.0386401
BRANCH_INDIRECT: 3.27509
BRANCH_CONDITIONAL: 3.54837
BRANCH_DIRECT_CALL: 0.0661401
BRANCH_INDIRECT_CALL: 0.173461
BRANCH_RETURN: 0.0582001

Instructions large pages: 0
Instructions small pages: 1273
Large page distribution for instructions: 0%

Data large pages: 0
Data small pages: 21910
Large page distribution for data: 0%

cpu0_L1I TOTAL       ACCESS:   15091368  HIT:   14627850  MISS:     463518  iACCESS:   15091368  iHIT:   14627850  iMISS:     463518  dACCESS:          0  dHIT:          0  dMISS:          0  itACCESS:          0  itHIT:          0  itMISS:          0  dtACCESS:          0  dtHIT:          0  dtMISS:          0
cpu0_L1I LOAD         ACCESS:     874540  HIT:     733914  MISS:     140626  iACCESS:     874540  iHIT:     733914  iMISS:     140626  dACCESS:          0  dHIT:          0  dMISS:          0  itACCESS:          0  itHIT:          0  itMISS:          0  dtACCESS:          0  dtHIT:          0  dtMISS:          0
cpu0_L1I RFO          ACCESS:          0  HIT:          0  MISS:          0  iACCESS:          0  iHIT:          0  iMISS:          0  dACCESS:          0  dHIT:          0  dMISS:          0  itACCESS:          0  itHIT:          0  itMISS:          0  dtACCESS:          0  dtHIT:          0  dtMISS:          0
cpu0_L1I PREFETCH     ACCESS:   14216828  HIT:   13893936  MISS:     322892  iACCESS:   14216828  iHIT:   13893936  iMISS:     322892  dACCESS:          0  dHIT:          0  dMISS:          0  itACCESS:          0  itHIT:          0  itMISS:          0  dtACCESS:          0  dtHIT:          0  dtMISS:          0
cpu0_L1I WRITE        ACCESS:          0  HIT:          0  MISS:          0  iACCESS:          0  iHIT:          0  iMISS:          0  dACCESS:          0  dHIT:          0  dMISS:          0  itACCESS:          0  itHIT:          0  itMISS:          0  dtACCESS:          0  dtHIT:          0  dtMISS:          0
cpu0_L1I TRANSLATION  ACCESS:          0  HIT:          0  MISS:          0  iACCESS:          0  iHIT:          0  iMISS:          0  dACCESS:          0  dHIT:          0  dMISS:          0  itACCESS:          0  itHIT:          0  itMISS:          0  dtACCESS:          0  dtHIT:          0  dtMISS:          0
cpu0_L1I PREFETCH  REQUESTED:   14433359  ISSUED:   14427931  CROSSED:          0  USEFUL:      94709  USELESS:      35764
cpu0_L1I AVERAGE iMISS LATENCY: 20.1023 cycles
cpu0_L1I AVERAGE dMISS LATENCY: 0 cycles
cpu0_L1I AVERAGE itMISS LATENCY: 0 cycles
cpu0_L1I AVERAGE dtMISS LATENCY: 0 cycles
cpu0_L1I PAGE CROSSINGS (TLB HIT):         0 
cpu0_L1I PAGE CROSSINGS (TLB MISS):         0 
cpu0_L1I AVERAGE MISS LATENCY: 20.1023 cycles
cpu0_ITLB TOTAL       ACCESS:   13522980  HIT:   13402579  MISS:     120401  iACCESS:   13522980  iHIT:   13402579  iMISS:     120401  dACCESS:          0  dHIT:          0  dMISS:          0  itACCESS:          0  itHIT:          0  itMISS:          0  dtACCESS:          0  dtHIT:          0  dtMISS:          0
cpu0_ITLB LOAD         ACCESS:   13522980  HIT:   13402579  MISS:     120401  iACCESS:   13522980  iHIT:   13402579  iMISS:     120401  dACCESS:          0  dHIT:          0  dMISS:          0  itACCESS:          0  itHIT:          0  itMISS:          0  dtACCESS:          0  dtHIT:          0  dtMISS:          0
cpu0_ITLB RFO          ACCESS:          0  HIT:          0  MISS:          0  iACCESS:          0  iHIT:          0  iMISS:          0  dACCESS:          0  dHIT:          0  dMISS:          0  itACCESS:          0  itHIT:          0  itMISS:          0  dtACCESS:          0  dtHIT:          0  dtMISS:          0
cpu0_ITLB PREFETCH     ACCESS:          0  HIT:          0  MISS:          0  iACCESS:          0  iHIT:          0  iMISS:          0  dACCESS:          0  dHIT:          0  dMISS:          0  itACCESS:          0  itHIT:          0  itMISS:          0  dtACCESS:          0  dtHIT:          0  dtMISS:          0
cpu0_ITLB WRITE        ACCESS:          0  HIT:          0  MISS:          0  iACCESS:          0  iHIT:          0  iMISS:          0  dACCESS:          0  dHIT:          0  dMISS:          0  itACCESS:          0  itHIT:          0  itMISS:          0  dtACCESS:          0  dtHIT:          0  dtMISS:          0
cpu0_ITLB TRANSLATION  ACCESS:          0  HIT:          0  MISS:          0  iACCESS:          0  iHIT:          0  iMISS:          0  dACCESS:          0  dHIT:          0  dMISS:          0  itACCESS:          0  itHIT:          0  itMISS:          0  dtACCESS:          0  dtHIT:          0  dtMISS:          0
cpu0_ITLB PREFETCH  REQUESTED:          0  ISSUED:          0  CROSSED:          0  USEFUL:      16469  USELESS:       4114
cpu0_ITLB AVERAGE iMISS LATENCY: 8.09249 cycles
cpu0_ITLB AVERAGE dMISS LATENCY: 0 cycles
cpu0_ITLB AVERAGE itMISS LATENCY: 0 cycles
cpu0_ITLB AVERAGE dtMISS LATENCY: 0 cycles
cpu0_ITLB PAGE CROSSINGS (TLB HIT):         0 
cpu0_ITLB PAGE CROSSINGS (TLB MISS):         0 
cpu0_ITLB AVERAGE MISS LATENCY: 8.09249 cycles
cpu0_DTLB TOTAL       ACCESS:   27395047  HIT:   22641134  MISS:    4753913  iACCESS:          0  iHIT:          0  iMISS:          0  dACCESS:   27395047  dHIT:   22641134  dMISS:    4753913  itACCESS:          0  itHIT:          0  itMISS:          0  dtACCESS:          0  dtHIT:          0  dtMISS:          0
cpu0_DTLB LOAD         ACCESS:   27395047  HIT:   22641134  MISS:    4753913  iACCESS:          0  iHIT:          0  iMISS:          0  dACCESS:   27395047  dHIT:   22641134  dMISS:    4753913  itACCESS:          0  itHIT:          0  itMISS:          0  dtACCESS:          0  dtHIT:          0  dtMISS:          0
cpu0_DTLB RFO          ACCESS:          0  HIT:          0  MISS:          0  iACCESS:          0  iHIT:          0  iMISS:          0  dACCESS:          0  dHIT:          0  dMISS:          0  itACCESS:          0  itHIT:          0  itMISS:          0  dtACCESS:          0  dtHIT:          0  dtMISS:          0
cpu0_DTLB PREFETCH     ACCESS:          0  HIT:          0  MISS:          0  iACCESS:          0  iHIT:          0  iMISS:          0  dACCESS:          0  dHIT:          0  dMISS:          0  itACCESS:          0  itHIT:          0  itMISS:          0  dtACCESS:          0  dtHIT:          0  dtMISS:          0
cpu0_DTLB WRITE        ACCESS:          0  HIT:          0  MISS:          0  iACCESS:          0  iHIT:          0  iMISS:          0  dACCESS:          0  dHIT:          0  dMISS:          0  itACCESS:          0  itHIT:          0  itMISS:          0  dtACCESS:          0  dtHIT:          0  dtMISS:          0
cpu0_DTLB TRANSLATION  ACCESS:          0  HIT:          0  MISS:          0  iACCESS:          0  iHIT:          0  iMISS:          0  dACCESS:          0  dHIT:          0  dMISS:          0  itACCESS:          0  itHIT:          0  itMISS:          0  dtACCESS:          0  dtHIT:          0  dtMISS:          0
cpu0_DTLB PREFETCH  REQUESTED:          0  ISSUED:          0  CROSSED:          0  USEFUL:          0  USELESS:          0
cpu0_DTLB AVERAGE iMISS LATENCY: 0 cycles
cpu0_DTLB AVERAGE dMISS LATENCY: 7.08241 cycles
cpu0_DTLB AVERAGE itMISS LATENCY: 0 cycles
cpu0_DTLB AVERAGE dtMISS LATENCY: 0 cycles
cpu0_DTLB PAGE CROSSINGS (TLB HIT):         0 
cpu0_DTLB PAGE CROSSINGS (TLB MISS):         0 
cpu0_DTLB AVERAGE MISS LATENCY: 7.08241 cycles
cpu0_STLB TOTAL       ACCESS:    2956373  HIT:    2824732  MISS:     131641  iACCESS:      20582  iHIT:      16621  iMISS:       3961  dACCESS:    2935791  dHIT:    2808111  dMISS:     127680  itACCESS:          0  itHIT:          0  itMISS:          0  dtACCESS:          0  dtHIT:          0  dtMISS:          0
cpu0_STLB LOAD         ACCESS:    2956373  HIT:    2824732  MISS:     131641  iACCESS:      20582  iHIT:      16621  iMISS:       3961  dACCESS:    2935791  dHIT:    2808111  dMISS:     127680  itACCESS:          0  itHIT:          0  itMISS:          0  dtACCESS:          0  dtHIT:          0  dtMISS:          0
cpu0_STLB RFO          ACCESS:          0  HIT:          0  MISS:          0  iACCESS:          0  iHIT:          0  iMISS:          0  dACCESS:          0  dHIT:          0  dMISS:          0  itACCESS:          0  itHIT:          0  itMISS:          0  dtACCESS:          0  dtHIT:          0  dtMISS:          0
cpu0_STLB PREFETCH     ACCESS:          0  HIT:          0  MISS:          0  iACCESS:          0  iHIT:          0  iMISS:          0  dACCESS:          0  dHIT:          0  dMISS:          0  itACCESS:          0  itHIT:          0  itMISS:          0  dtACCESS:          0  dtHIT:          0  dtMISS:          0
cpu0_STLB WRITE        ACCESS:          0  HIT:          0  MISS:          0  iACCESS:          0  iHIT:          0  iMISS:          0  dACCESS:          0  dHIT:          0  dMISS:          0  itACCESS:          0  itHIT:          0  itMISS:          0  dtACCESS:          0  dtHIT:          0  dtMISS:          0
cpu0_STLB TRANSLATION  ACCESS:          0  HIT:          0  MISS:          0  iACCESS:          0  iHIT:          0  iMISS:          0  dACCESS:          0  dHIT:          0  dMISS:          0  itACCESS:          0  itHIT:          0  itMISS:          0  dtACCESS:          0  dtHIT:          0  dtMISS:          0
cpu0_STLB PREFETCH  REQUESTED:          0  ISSUED:          0  CROSSED:          0  USEFUL:          0  USELESS:          0
cpu0_STLB AVERAGE iMISS LATENCY: 6.15687 cycles
cpu0_STLB AVERAGE dMISS LATENCY: 74.1603 cycles
cpu0_STLB AVERAGE itMISS LATENCY: 0 cycles
cpu0_STLB AVERAGE dtMISS LATENCY: 0 cycles
cpu0_STLB PAGE CROSSINGS (TLB HIT):         0 
cpu0_STLB PAGE CROSSINGS (TLB MISS):         0 
cpu0_STLB AVERAGE MISS LATENCY: 80.3171 cycles
cpu0_L1D TOTAL       ACCESS:  158804991  HIT:   32018381  MISS:  126786610  iACCESS:          0  iHIT:          0  iMISS:          0  dACCESS:  158449725  dHIT:   31988456  dMISS:  126461269  itACCESS:       4491  itHIT:        570  itMISS:       3921  dtACCESS:     350775  dtHIT:      29355  dtMISS:     321420
cpu0_L1D LOAD         ACCESS:   68354131  HIT:   16645153  MISS:   51708978  iACCESS:          0  iHIT:          0  iMISS:          0  dACCESS:   68354131  dHIT:   16645153  dMISS:   51708978  itACCESS:          0  itHIT:          0  itMISS:          0  dtACCESS:          0  dtHIT:          0  dtMISS:          0
cpu0_L1D RFO          ACCESS:          0  HIT:          0  MISS:          0  iACCESS:          0  iHIT:          0  iMISS:          0  dACCESS:          0  dHIT:          0  dMISS:          0  itACCESS:          0  itHIT:          0  itMISS:          0  dtACCESS:          0  dtHIT:          0  dtMISS:          0
cpu0_L1D PREFETCH     ACCESS:   83494401  HIT:    9931427  MISS:   73562974  iACCESS:          0  iHIT:          0  iMISS:          0  dACCESS:   83494401  dHIT:    9931427  dMISS:   73562974  itACCESS:          0  itHIT:          0  itMISS:          0  dtACCESS:          0  dtHIT:          0  dtMISS:          0
cpu0_L1D WRITE        ACCESS:    6601193  HIT:    5411876  MISS:    1189317  iACCESS:          0  iHIT:          0  iMISS:          0  dACCESS:    6601193  dHIT:    5411876  dMISS:    1189317  itACCESS:          0  itHIT:          0  itMISS:          0  dtACCESS:          0  dtHIT:          0  dtMISS:          0
cpu0_L1D TRANSLATION  ACCESS:     355266  HIT:      29925  MISS:     325341  iACCESS:          0  iHIT:          0  iMISS:          0  dACCESS:          0  dHIT:          0  dMISS:          0  itACCESS:       4491  itHIT:        570  itMISS:       3921  dtACCESS:     350775  dtHIT:      29355  dtMISS:     321420
cpu0_L1D PREFETCH  REQUESTED:   68354131  ISSUED:   27755089  CROSSED:          0  USEFUL:     166839  USELESS:    1411101
cpu0_L1D AVERAGE iMISS LATENCY: 0 cycles
cpu0_L1D AVERAGE dMISS LATENCY: 17.7761 cycles
cpu0_L1D AVERAGE itMISS LATENCY: 0.00605909 cycles
cpu0_L1D AVERAGE dtMISS LATENCY: 0.0529748 cycles
cpu0_L1D PAGE CROSSINGS (TLB HIT):         0 
cpu0_L1D PAGE CROSSINGS (TLB MISS):         0 
cpu0_L1D AVERAGE MISS LATENCY: 17.8351 cycles
cpu0_L2C TOTAL       ACCESS:    6441815  HIT:    3457514  MISS:    2984301  iACCESS:     172584  iHIT:     121784  iMISS:      50800  dACCESS:    6187925  dHIT:    3276879  dMISS:    2911046  itACCESS:       3791  itHIT:        516  itMISS:       3275  dtACCESS:      77515  dtHIT:      58335  dtMISS:      19180
cpu0_L2C LOAD         ACCESS:    3945258  HIT:    2551263  MISS:    1393995  iACCESS:      43678  iHIT:      32471  iMISS:      11207  dACCESS:    3901580  dHIT:    2518792  dMISS:    1382788  itACCESS:          0  itHIT:          0  itMISS:          0  dtACCESS:          0  dtHIT:          0  dtMISS:          0
cpu0_L2C RFO          ACCESS:     114456  HIT:      31961  MISS:      82495  iACCESS:          0  iHIT:          0  iMISS:          0  dACCESS:     114456  dHIT:      31961  dMISS:      82495  itACCESS:          0  itHIT:          0  itMISS:          0  dtACCESS:          0  dtHIT:          0  dtMISS:          0
cpu0_L2C PREFETCH     ACCESS:    2193449  HIT:     713911  MISS:    1479538  iACCESS:     128906  iHIT:      89313  iMISS:      39593  dACCESS:    2064543  dHIT:     624598  dMISS:    1439945  itACCESS:          0  itHIT:          0  itMISS:          0  dtACCESS:          0  dtHIT:          0  dtMISS:          0
cpu0_L2C WRITE        ACCESS:     107346  HIT:     101528  MISS:       5818  iACCESS:          0  iHIT:          0  iMISS:          0  dACCESS:     107346  dHIT:     101528  dMISS:       5818  itACCESS:          0  itHIT:          0  itMISS:          0  dtACCESS:          0  dtHIT:          0  dtMISS:          0
cpu0_L2C TRANSLATION  ACCESS:      81306  HIT:      58851  MISS:      22455  iACCESS:          0  iHIT:          0  iMISS:          0  dACCESS:          0  dHIT:          0  dMISS:          0  itACCESS:       3791  itHIT:        516  itMISS:       3275  dtACCESS:      77515  dtHIT:      58335  dtMISS:      19180
cpu0_L2C PREFETCH  REQUESTED:     507359  ISSUED:     506246  CROSSED:          0  USEFUL:      63844  USELESS:     218011
cpu0_L2C AVERAGE iMISS LATENCY: 2.62099 cycles
cpu0_L2C AVERAGE dMISS LATENCY: 751.685 cycles
cpu0_L2C AVERAGE itMISS LATENCY: 0.244834 cycles
cpu0_L2C AVERAGE dtMISS LATENCY: 2.00651 cycles
cpu0_L2C PAGE CROSSINGS (TLB HIT):         0 
cpu0_L2C PAGE CROSSINGS (TLB MISS):         0 
cpu0_L2C AVERAGE MISS LATENCY: 756.557 cycles
LLC TOTAL       ACCESS:    2841324  HIT:     594600  MISS:    2246724  iACCESS:      48442  iHIT:      12137  iMISS:      36305  dACCESS:    2770427  dHIT:     580735  dMISS:    2189692  itACCESS:       3275  itHIT:        171  itMISS:       3104  dtACCESS:      19180  dtHIT:       1557  dtMISS:      17623
LLC LOAD         ACCESS:    1391677  HIT:     249535  MISS:    1142142  iACCESS:      11174  iHIT:       3007  iMISS:       8167  dACCESS:    1380503  dHIT:     246528  dMISS:    1133975  itACCESS:          0  itHIT:          0  itMISS:          0  dtACCESS:          0  dtHIT:          0  dtMISS:          0
LLC RFO          ACCESS:      82495  HIT:       2320  MISS:      80175  iACCESS:          0  iHIT:          0  iMISS:          0  dACCESS:      82495  dHIT:       2320  dMISS:      80175  itACCESS:          0  itHIT:          0  itMISS:          0  dtACCESS:          0  dtHIT:          0  dtMISS:          0
LLC PREFETCH     ACCESS:    1258341  HIT:     268318  MISS:     990023  iACCESS:      37268  iHIT:       9130  iMISS:      28138  dACCESS:    1221073  dHIT:     259188  dMISS:     961885  itACCESS:          0  itHIT:          0  itMISS:          0  dtACCESS:          0  dtHIT:          0  dtMISS:          0
LLC WRITE        ACCESS:      86356  HIT:      72699  MISS:      13657  iACCESS:          0  iHIT:          0  iMISS:          0  dACCESS:      86356  dHIT:      72699  dMISS:      13657  itACCESS:          0  itHIT:          0  itMISS:          0  dtACCESS:          0  dtHIT:          0  dtMISS:          0
LLC TRANSLATION  ACCESS:      22455  HIT:       1728  MISS:      20727  iACCESS:          0  iHIT:          0  iMISS:          0  dACCESS:          0  dHIT:          0  dMISS:          0  itACCESS:       3275  itHIT:        171  itMISS:       3104  dtACCESS:      19180  dtHIT:       1557  dtMISS:      17623
LLC PREFETCH  REQUESTED:          0  ISSUED:          0  CROSSED:          0  USEFUL:          0  USELESS:          0
LLC AVERAGE iMISS LATENCY: 3.05569 cycles
LLC AVERAGE dMISS LATENCY: 975.515 cycles
LLC AVERAGE itMISS LATENCY: 0.296344 cycles
LLC AVERAGE dtMISS LATENCY: 2.49693 cycles
LLC PAGE CROSSINGS (TLB HIT):         0 
LLC PAGE CROSSINGS (TLB MISS):         0 
LLC AVERAGE MISS LATENCY: 981.364 cycles

PageTableWalker TOTAL       ACCESS:      29351  
PageTableWalker AVERAGE LATENCY: 3.37345 cycles
PageTableWalker TOTAL LATENCY: 99014 cycles

DRAM Statistics
Channel 0
 RQ ROW_BUFFER_HIT:     391596
  ROW_BUFFER_MISS:    1838698
 AVG DBUS CONGESTED CYCLE:    3.87825
 WQ ROW_BUFFER_HIT:      11707
  ROW_BUFFER_MISS:      69932  FULL:          0

