last_page:0x200000000000000
VMEM_RES_CAP:0x100000
PAGE_SIZE:4096
LOG2_PAGE_SIZE:12
LOG2_PAGE_TABLE_SIZE:9
page_table_levels:5
WARNING: physical memory size is smaller than virtual memory size
FDiP enabled with aggresivity 16

*** ChampSim Multicore Out-of-Order Simulator ***

Warmup Instructions: 50000000
Simulation Instructions: 100000000
Number of CPUs: 1
Small page size: 4096
Large page size: 2097152

CPU 0 Bimodal branch predictor
Basic BTB sets: 1024 ways: 8 indirect buffer size: 4096 RAS size: 64
Instruction page size distrubution: 0
Loading instruction page size distribution from /home/bsc/bsc018186/scratch/itp_asplos25_AE/dump/srv642_ap.pdst
Data page size distrubution: 0
Loading data page size distribution from /home/bsc/bsc018186/scratch/itp_asplos25_AE/dump/srv642_ap.pdst
cpu0_L2C IP-based stride prefetcher
cpu0_L1D next line prefetcher
cpu0_STLB using iTP with max lru@8
cpu0_STLB using iTP with instr@0 and data@2
Init sat counter with 3 bits (max:50).
cpu0_L1I next line prefetcher
Off-chip DRAM Size: 4 GiB Channels: 1 Width: 64-bit Data Rate: 3200 MT/s
Heartbeat CPU 0 instructions: 10000002 cycles: 2500232 heartbeat IPC: 3.99963 cumulative IPC: 3.99963 (Simulation time: 0 hr 0 min 38 sec) 
Heartbeat CPU 0 instructions: 20000003 cycles: 5000234 heartbeat IPC: 4 cumulative IPC: 3.99982 (Simulation time: 0 hr 1 min 18 sec) 
Heartbeat CPU 0 instructions: 30000003 cycles: 7500234 heartbeat IPC: 4 cumulative IPC: 3.99988 (Simulation time: 0 hr 1 min 58 sec) 
Heartbeat CPU 0 instructions: 40000001 cycles: 10000307 heartbeat IPC: 3.99989 cumulative IPC: 3.99988 (Simulation time: 0 hr 2 min 39 sec) 
Heartbeat CPU 0 instructions: 50000001 cycles: 12500307 heartbeat IPC: 4 cumulative IPC: 3.99991 (Simulation time: 0 hr 3 min 20 sec) 
Warmup finished CPU 0 instructions: 50000001 cycles: 12500308 cumulative IPC: 3.99991 (Simulation time: 0 hr 3 min 20 sec) 

Warmup complete CPU 0 instructions: 50000001 cycles: 12500308 (Simulation time: 0 hr 3 min 20 sec) 

Heartbeat CPU 0 instructions: 60000002 cycles: 27793162 heartbeat IPC: 0.653901 cumulative IPC: 0.653901 (Simulation time: 0 hr 4 min 24 sec) 
Heartbeat CPU 0 instructions: 70000000 cycles: 43191262 heartbeat IPC: 0.649431 cumulative IPC: 0.651658 (Simulation time: 0 hr 5 min 28 sec) 
Heartbeat CPU 0 instructions: 80000004 cycles: 58160576 heartbeat IPC: 0.668034 cumulative IPC: 0.657027 (Simulation time: 0 hr 6 min 32 sec) 
Heartbeat CPU 0 instructions: 90000000 cycles: 73287544 heartbeat IPC: 0.661071 cumulative IPC: 0.658033 (Simulation time: 0 hr 7 min 36 sec) 
Heartbeat CPU 0 instructions: 100000004 cycles: 87391872 heartbeat IPC: 0.709003 cumulative IPC: 0.667632 (Simulation time: 0 hr 8 min 39 sec) 
*** Reached end of trace: /gpfs/projects/bsc18/MN4/bsc18/romol/ChampSim/traces/qualcomm_srv/srv642_ap.champsimtrace.xz
Heartbeat CPU 0 instructions: 110000002 cycles: 102803319 heartbeat IPC: 0.648869 cumulative IPC: 0.66443 (Simulation time: 0 hr 9 min 43 sec) 
Heartbeat CPU 0 instructions: 120000000 cycles: 118445462 heartbeat IPC: 0.639299 cumulative IPC: 0.66072 (Simulation time: 0 hr 10 min 48 sec) 
Heartbeat CPU 0 instructions: 130000000 cycles: 132658856 heartbeat IPC: 0.703562 cumulative IPC: 0.665787 (Simulation time: 0 hr 11 min 51 sec) 
Heartbeat CPU 0 instructions: 140000002 cycles: 146949660 heartbeat IPC: 0.699751 cumulative IPC: 0.669398 (Simulation time: 0 hr 12 min 54 sec) 
Heartbeat CPU 0 instructions: 150000002 cycles: 161545859 heartbeat IPC: 0.68511 cumulative IPC: 0.670936 (Simulation time: 0 hr 13 min 58 sec) 
Simulation finished CPU 0 instructions: 100000001 cycles: 149045552 cumulative IPC: 0.670936 (Simulation time: 0 hr 13 min 58 sec) 

Simulation complete CPU 0 instructions: 100000001 cycles: 149045552 (Simulation time: 0 hr 13 min 58 sec) 


ChampSim completed all CPUs

Saving instructions large page distribution to /home/bsc/bsc018186/scratch/itp_asplos25_AE/dump/srv642_ap.pdst...
Saving data large page distribution to /home/bsc/bsc018186/scratch/itp_asplos25_AE/dump/srv642_ap.pdst...
=== Simulation ===
CPU 0 runs /gpfs/projects/bsc18/MN4/bsc18/romol/ChampSim/traces/qualcomm_srv/srv642_ap.champsimtrace.xz

Region of Interest Statistics

CPU 0 cumulative IPC: 0.670936 instructions: 100000001 cycles: 149045552
CPU 0 Branch Prediction Accuracy: 83.3684% MPKI: 29.717 Average ROB Occupancy at Mispredict: 13.0281
Branch type MPKI
BRANCH_DIRECT_JUMP: 1.01965
BRANCH_INDIRECT: 15.3331
BRANCH_CONDITIONAL: 9.67066
BRANCH_DIRECT_CALL: 1.8437
BRANCH_INDIRECT_CALL: 0.51454
BRANCH_RETURN: 1.33528

Instructions large pages: 0
Instructions small pages: 1029
Large page distribution for instructions: 0%

Data large pages: 0
Data small pages: 10108
Large page distribution for data: 0%

cpu0_L1I TOTAL       ACCESS:   34739514  HIT:   26960283  MISS:    7779231  iACCESS:   34739514  iHIT:   26960283  iMISS:    7779231  dACCESS:          0  dHIT:          0  dMISS:          0  itACCESS:          0  itHIT:          0  itMISS:          0  dtACCESS:          0  dtHIT:          0  dtMISS:          0
cpu0_L1I LOAD         ACCESS:   10220435  HIT:    8033332  MISS:    2187103  iACCESS:   10220435  iHIT:    8033332  iMISS:    2187103  dACCESS:          0  dHIT:          0  dMISS:          0  itACCESS:          0  itHIT:          0  itMISS:          0  dtACCESS:          0  dtHIT:          0  dtMISS:          0
cpu0_L1I RFO          ACCESS:          0  HIT:          0  MISS:          0  iACCESS:          0  iHIT:          0  iMISS:          0  dACCESS:          0  dHIT:          0  dMISS:          0  itACCESS:          0  itHIT:          0  itMISS:          0  dtACCESS:          0  dtHIT:          0  dtMISS:          0
cpu0_L1I PREFETCH     ACCESS:   24519079  HIT:   18926951  MISS:    5592128  iACCESS:   24519079  iHIT:   18926951  iMISS:    5592128  dACCESS:          0  dHIT:          0  dMISS:          0  itACCESS:          0  itHIT:          0  itMISS:          0  dtACCESS:          0  dtHIT:          0  dtMISS:          0
cpu0_L1I WRITE        ACCESS:          0  HIT:          0  MISS:          0  iACCESS:          0  iHIT:          0  iMISS:          0  dACCESS:          0  dHIT:          0  dMISS:          0  itACCESS:          0  itHIT:          0  itMISS:          0  dtACCESS:          0  dtHIT:          0  dtMISS:          0
cpu0_L1I TRANSLATION  ACCESS:          0  HIT:          0  MISS:          0  iACCESS:          0  iHIT:          0  iMISS:          0  dACCESS:          0  dHIT:          0  dMISS:          0  itACCESS:          0  itHIT:          0  itMISS:          0  dtACCESS:          0  dtHIT:          0  dtMISS:          0
cpu0_L1I PREFETCH  REQUESTED:   27108205  ISSUED:   27108205  CROSSED:          0  USEFUL:    1893140  USELESS:     626488
cpu0_L1I AVERAGE iMISS LATENCY: 12.7965 cycles
cpu0_L1I AVERAGE dMISS LATENCY: 0 cycles
cpu0_L1I AVERAGE itMISS LATENCY: 0 cycles
cpu0_L1I AVERAGE dtMISS LATENCY: 0 cycles
cpu0_L1I PAGE CROSSINGS (TLB HIT):         0 
cpu0_L1I PAGE CROSSINGS (TLB MISS):         0 
cpu0_L1I AVERAGE MISS LATENCY: 12.7965 cycles
cpu0_ITLB TOTAL       ACCESS:   29014690  HIT:   27035403  MISS:    1979287  iACCESS:   29014690  iHIT:   27035403  iMISS:    1979287  dACCESS:          0  dHIT:          0  dMISS:          0  itACCESS:          0  itHIT:          0  itMISS:          0  dtACCESS:          0  dtHIT:          0  dtMISS:          0
cpu0_ITLB LOAD         ACCESS:   29014690  HIT:   27035403  MISS:    1979287  iACCESS:   29014690  iHIT:   27035403  iMISS:    1979287  dACCESS:          0  dHIT:          0  dMISS:          0  itACCESS:          0  itHIT:          0  itMISS:          0  dtACCESS:          0  dtHIT:          0  dtMISS:          0
cpu0_ITLB RFO          ACCESS:          0  HIT:          0  MISS:          0  iACCESS:          0  iHIT:          0  iMISS:          0  dACCESS:          0  dHIT:          0  dMISS:          0  itACCESS:          0  itHIT:          0  itMISS:          0  dtACCESS:          0  dtHIT:          0  dtMISS:          0
cpu0_ITLB PREFETCH     ACCESS:          0  HIT:          0  MISS:          0  iACCESS:          0  iHIT:          0  iMISS:          0  dACCESS:          0  dHIT:          0  dMISS:          0  itACCESS:          0  itHIT:          0  itMISS:          0  dtACCESS:          0  dtHIT:          0  dtMISS:          0
cpu0_ITLB WRITE        ACCESS:          0  HIT:          0  MISS:          0  iACCESS:          0  iHIT:          0  iMISS:          0  dACCESS:          0  dHIT:          0  dMISS:          0  itACCESS:          0  itHIT:          0  itMISS:          0  dtACCESS:          0  dtHIT:          0  dtMISS:          0
cpu0_ITLB TRANSLATION  ACCESS:          0  HIT:          0  MISS:          0  iACCESS:          0  iHIT:          0  iMISS:          0  dACCESS:          0  dHIT:          0  dMISS:          0  itACCESS:          0  itHIT:          0  itMISS:          0  dtACCESS:          0  dtHIT:          0  dtMISS:          0
cpu0_ITLB PREFETCH  REQUESTED:          0  ISSUED:          0  CROSSED:          0  USEFUL:     321607  USELESS:      67051
cpu0_ITLB AVERAGE iMISS LATENCY: 2.17546 cycles
cpu0_ITLB AVERAGE dMISS LATENCY: 0 cycles
cpu0_ITLB AVERAGE itMISS LATENCY: 0 cycles
cpu0_ITLB AVERAGE dtMISS LATENCY: 0 cycles
cpu0_ITLB PAGE CROSSINGS (TLB HIT):         0 
cpu0_ITLB PAGE CROSSINGS (TLB MISS):         0 
cpu0_ITLB AVERAGE MISS LATENCY: 2.17546 cycles
cpu0_DTLB TOTAL       ACCESS:   27679711  HIT:   25571221  MISS:    2108490  iACCESS:          0  iHIT:          0  iMISS:          0  dACCESS:   27679711  dHIT:   25571221  dMISS:    2108490  itACCESS:          0  itHIT:          0  itMISS:          0  dtACCESS:          0  dtHIT:          0  dtMISS:          0
cpu0_DTLB LOAD         ACCESS:   27679711  HIT:   25571221  MISS:    2108490  iACCESS:          0  iHIT:          0  iMISS:          0  dACCESS:   27679711  dHIT:   25571221  dMISS:    2108490  itACCESS:          0  itHIT:          0  itMISS:          0  dtACCESS:          0  dtHIT:          0  dtMISS:          0
cpu0_DTLB RFO          ACCESS:          0  HIT:          0  MISS:          0  iACCESS:          0  iHIT:          0  iMISS:          0  dACCESS:          0  dHIT:          0  dMISS:          0  itACCESS:          0  itHIT:          0  itMISS:          0  dtACCESS:          0  dtHIT:          0  dtMISS:          0
cpu0_DTLB PREFETCH     ACCESS:          0  HIT:          0  MISS:          0  iACCESS:          0  iHIT:          0  iMISS:          0  dACCESS:          0  dHIT:          0  dMISS:          0  itACCESS:          0  itHIT:          0  itMISS:          0  dtACCESS:          0  dtHIT:          0  dtMISS:          0
cpu0_DTLB WRITE        ACCESS:          0  HIT:          0  MISS:          0  iACCESS:          0  iHIT:          0  iMISS:          0  dACCESS:          0  dHIT:          0  dMISS:          0  itACCESS:          0  itHIT:          0  itMISS:          0  dtACCESS:          0  dtHIT:          0  dtMISS:          0
cpu0_DTLB TRANSLATION  ACCESS:          0  HIT:          0  MISS:          0  iACCESS:          0  iHIT:          0  iMISS:          0  dACCESS:          0  dHIT:          0  dMISS:          0  itACCESS:          0  itHIT:          0  itMISS:          0  dtACCESS:          0  dtHIT:          0  dtMISS:          0
cpu0_DTLB PREFETCH  REQUESTED:          0  ISSUED:          0  CROSSED:          0  USEFUL:          0  USELESS:          0
cpu0_DTLB AVERAGE iMISS LATENCY: 0 cycles
cpu0_DTLB AVERAGE dMISS LATENCY: 16.012 cycles
cpu0_DTLB AVERAGE itMISS LATENCY: 0 cycles
cpu0_DTLB AVERAGE dtMISS LATENCY: 0 cycles
cpu0_DTLB PAGE CROSSINGS (TLB HIT):         0 
cpu0_DTLB PAGE CROSSINGS (TLB MISS):         0 
cpu0_DTLB AVERAGE MISS LATENCY: 16.012 cycles
cpu0_STLB TOTAL       ACCESS:    1627391  HIT:    1480030  MISS:     147361  iACCESS:     388675  iHIT:     379846  iMISS:       8829  dACCESS:    1238716  dHIT:    1100184  dMISS:     138532  itACCESS:          0  itHIT:          0  itMISS:          0  dtACCESS:          0  dtHIT:          0  dtMISS:          0
cpu0_STLB LOAD         ACCESS:    1627391  HIT:    1480030  MISS:     147361  iACCESS:     388675  iHIT:     379846  iMISS:       8829  dACCESS:    1238716  dHIT:    1100184  dMISS:     138532  itACCESS:          0  itHIT:          0  itMISS:          0  dtACCESS:          0  dtHIT:          0  dtMISS:          0
cpu0_STLB RFO          ACCESS:          0  HIT:          0  MISS:          0  iACCESS:          0  iHIT:          0  iMISS:          0  dACCESS:          0  dHIT:          0  dMISS:          0  itACCESS:          0  itHIT:          0  itMISS:          0  dtACCESS:          0  dtHIT:          0  dtMISS:          0
cpu0_STLB PREFETCH     ACCESS:          0  HIT:          0  MISS:          0  iACCESS:          0  iHIT:          0  iMISS:          0  dACCESS:          0  dHIT:          0  dMISS:          0  itACCESS:          0  itHIT:          0  itMISS:          0  dtACCESS:          0  dtHIT:          0  dtMISS:          0
cpu0_STLB WRITE        ACCESS:          0  HIT:          0  MISS:          0  iACCESS:          0  iHIT:          0  iMISS:          0  dACCESS:          0  dHIT:          0  dMISS:          0  itACCESS:          0  itHIT:          0  itMISS:          0  dtACCESS:          0  dtHIT:          0  dtMISS:          0
cpu0_STLB TRANSLATION  ACCESS:          0  HIT:          0  MISS:          0  iACCESS:          0  iHIT:          0  iMISS:          0  dACCESS:          0  dHIT:          0  dMISS:          0  itACCESS:          0  itHIT:          0  itMISS:          0  dtACCESS:          0  dtHIT:          0  dtMISS:          0
cpu0_STLB PREFETCH  REQUESTED:          0  ISSUED:          0  CROSSED:          0  USEFUL:          0  USELESS:          0
cpu0_STLB AVERAGE iMISS LATENCY: 8.74167 cycles
cpu0_STLB AVERAGE dMISS LATENCY: 161.87 cycles
cpu0_STLB AVERAGE itMISS LATENCY: 0 cycles
cpu0_STLB AVERAGE dtMISS LATENCY: 0 cycles
cpu0_STLB PAGE CROSSINGS (TLB HIT):         0 
cpu0_STLB PAGE CROSSINGS (TLB MISS):         0 
cpu0_STLB AVERAGE MISS LATENCY: 170.612 cycles
cpu0_L1D TOTAL       ACCESS:   41392056  HIT:   37973351  MISS:    3418705  iACCESS:          0  iHIT:          0  iMISS:          0  dACCESS:   41174805  dHIT:   37959454  dMISS:    3215351  itACCESS:      11031  itHIT:       1100  itMISS:       9931  dtACCESS:     206220  dtHIT:      12797  dtMISS:     193423
cpu0_L1D LOAD         ACCESS:   18871491  HIT:   17404414  MISS:    1467077  iACCESS:          0  iHIT:          0  iMISS:          0  dACCESS:   18871491  dHIT:   17404414  dMISS:    1467077  itACCESS:          0  itHIT:          0  itMISS:          0  dtACCESS:          0  dtHIT:          0  dtMISS:          0
cpu0_L1D RFO          ACCESS:          0  HIT:          0  MISS:          0  iACCESS:          0  iHIT:          0  iMISS:          0  dACCESS:          0  dHIT:          0  dMISS:          0  itACCESS:          0  itHIT:          0  itMISS:          0  dtACCESS:          0  dtHIT:          0  dtMISS:          0
cpu0_L1D PREFETCH     ACCESS:   12114424  HIT:   10803031  MISS:    1311393  iACCESS:          0  iHIT:          0  iMISS:          0  dACCESS:   12114424  dHIT:   10803031  dMISS:    1311393  itACCESS:          0  itHIT:          0  itMISS:          0  dtACCESS:          0  dtHIT:          0  dtMISS:          0
cpu0_L1D WRITE        ACCESS:   10188890  HIT:    9752009  MISS:     436881  iACCESS:          0  iHIT:          0  iMISS:          0  dACCESS:   10188890  dHIT:    9752009  dMISS:     436881  itACCESS:          0  itHIT:          0  itMISS:          0  dtACCESS:          0  dtHIT:          0  dtMISS:          0
cpu0_L1D TRANSLATION  ACCESS:     217251  HIT:      13897  MISS:     203354  iACCESS:          0  iHIT:          0  iMISS:          0  dACCESS:          0  dHIT:          0  dMISS:          0  itACCESS:      11031  itHIT:       1100  itMISS:       9931  dtACCESS:     206220  dtHIT:      12797  dtMISS:     193423
cpu0_L1D PREFETCH  REQUESTED:   18871491  ISSUED:   16980472  CROSSED:          0  USEFUL:     306115  USELESS:     696822
cpu0_L1D AVERAGE iMISS LATENCY: 0 cycles
cpu0_L1D AVERAGE dMISS LATENCY: 33.3902 cycles
cpu0_L1D AVERAGE itMISS LATENCY: 0.348819 cycles
cpu0_L1D AVERAGE dtMISS LATENCY: 6.12814 cycles
cpu0_L1D PAGE CROSSINGS (TLB HIT):         0 
cpu0_L1D PAGE CROSSINGS (TLB MISS):         0 
cpu0_L1D AVERAGE MISS LATENCY: 39.8671 cycles
cpu0_L2C TOTAL       ACCESS:    6909933  HIT:    4014800  MISS:    2895133  iACCESS:    3279389  iHIT:    2195881  iMISS:    1083508  dACCESS:    3434929  dHIT:    1781355  dMISS:    1653574  itACCESS:       9913  itHIT:       2064  itMISS:       7849  dtACCESS:     185702  dtHIT:      35500  dtMISS:     150202
cpu0_L2C LOAD         ACCESS:    1721056  HIT:    1027280  MISS:     693776  iACCESS:     795571  iHIT:     556352  iMISS:     239219  dACCESS:     925485  dHIT:     470928  dMISS:     454557  itACCESS:          0  itHIT:          0  itMISS:          0  dtACCESS:          0  dtHIT:          0  dtMISS:          0
cpu0_L2C RFO          ACCESS:     157342  HIT:      72487  MISS:      84855  iACCESS:          0  iHIT:          0  iMISS:          0  dACCESS:     157342  dHIT:      72487  dMISS:      84855  itACCESS:          0  itHIT:          0  itMISS:          0  dtACCESS:          0  dtHIT:          0  dtMISS:          0
cpu0_L2C PREFETCH     ACCESS:    4551407  HIT:    2594318  MISS:    1957089  iACCESS:    2483818  iHIT:    1639529  iMISS:     844289  dACCESS:    2067589  dHIT:     954789  dMISS:    1112800  itACCESS:          0  itHIT:          0  itMISS:          0  dtACCESS:          0  dtHIT:          0  dtMISS:          0
cpu0_L2C WRITE        ACCESS:     284513  HIT:     283151  MISS:       1362  iACCESS:          0  iHIT:          0  iMISS:          0  dACCESS:     284513  dHIT:     283151  dMISS:       1362  itACCESS:          0  itHIT:          0  itMISS:          0  dtACCESS:          0  dtHIT:          0  dtMISS:          0
cpu0_L2C TRANSLATION  ACCESS:     195615  HIT:      37564  MISS:     158051  iACCESS:          0  iHIT:          0  iMISS:          0  dACCESS:          0  dHIT:          0  dMISS:          0  itACCESS:       9913  itHIT:       2064  itMISS:       7849  dtACCESS:     185702  dtHIT:      35500  dtMISS:     150202
cpu0_L2C PREFETCH  REQUESTED:    1309501  ISSUED:    1309501  CROSSED:          0  USEFUL:     305486  USELESS:     225932
cpu0_L2C AVERAGE iMISS LATENCY: 24.2937 cycles
cpu0_L2C AVERAGE dMISS LATENCY: 45.7584 cycles
cpu0_L2C AVERAGE itMISS LATENCY: 0.378285 cycles
cpu0_L2C AVERAGE dtMISS LATENCY: 6.60227 cycles
cpu0_L2C PAGE CROSSINGS (TLB HIT):         0 
cpu0_L2C PAGE CROSSINGS (TLB MISS):         0 
cpu0_L2C AVERAGE MISS LATENCY: 77.0326 cycles
LLC TOTAL       ACCESS:    2927915  HIT:    1878162  MISS:    1049753  iACCESS:    1033449  iHIT:     702647  iMISS:     330802  dACCESS:    1736415  dHIT:    1114190  dMISS:     622225  itACCESS:       7849  itHIT:       2429  itMISS:       5420  dtACCESS:     150202  dtHIT:      58896  dtMISS:      91306
LLC LOAD         ACCESS:     692756  HIT:     454630  MISS:     238126  iACCESS:     238393  iHIT:     163045  iMISS:      75348  dACCESS:     454363  dHIT:     291585  dMISS:     162778  itACCESS:          0  itHIT:          0  itMISS:          0  dtACCESS:          0  dtHIT:          0  dtMISS:          0
LLC RFO          ACCESS:      84854  HIT:      45903  MISS:      38951  iACCESS:          0  iHIT:          0  iMISS:          0  dACCESS:      84854  dHIT:      45903  dMISS:      38951  itACCESS:          0  itHIT:          0  itMISS:          0  dtACCESS:          0  dtHIT:          0  dtMISS:          0
LLC PREFETCH     ACCESS:    1856806  HIT:    1186449  MISS:     670357  iACCESS:     795056  iHIT:     539602  iMISS:     255454  dACCESS:    1061750  dHIT:     646847  dMISS:     414903  itACCESS:          0  itHIT:          0  itMISS:          0  dtACCESS:          0  dtHIT:          0  dtMISS:          0
LLC WRITE        ACCESS:     135448  HIT:     129855  MISS:       5593  iACCESS:          0  iHIT:          0  iMISS:          0  dACCESS:     135448  dHIT:     129855  dMISS:       5593  itACCESS:          0  itHIT:          0  itMISS:          0  dtACCESS:          0  dtHIT:          0  dtMISS:          0
LLC TRANSLATION  ACCESS:     158051  HIT:      61325  MISS:      96726  iACCESS:          0  iHIT:          0  iMISS:          0  dACCESS:          0  dHIT:          0  dMISS:          0  itACCESS:       7849  itHIT:       2429  itMISS:       5420  dtACCESS:     150202  dtHIT:      58896  dtMISS:      91306
LLC PREFETCH  REQUESTED:          0  ISSUED:          0  CROSSED:          0  USEFUL:          0  USELESS:          0
LLC AVERAGE iMISS LATENCY: 47.8948 cycles
LLC AVERAGE dMISS LATENCY: 96.6619 cycles
LLC AVERAGE itMISS LATENCY: 0.896517 cycles
LLC AVERAGE dtMISS LATENCY: 15.4091 cycles
LLC PAGE CROSSINGS (TLB HIT):         0 
LLC PAGE CROSSINGS (TLB MISS):         0 
LLC AVERAGE MISS LATENCY: 160.863 cycles

PageTableWalker TOTAL       ACCESS:      73797  
PageTableWalker AVERAGE LATENCY: 5.68094 cycles
PageTableWalker TOTAL LATENCY: 419236 cycles

DRAM Statistics
Channel 0
 RQ ROW_BUFFER_HIT:     255633
  ROW_BUFFER_MISS:     788462
 AVG DBUS CONGESTED CYCLE:    3.62145
 WQ ROW_BUFFER_HIT:      20824
  ROW_BUFFER_MISS:      22181  FULL:          0

