last_page:0x200000000000000
VMEM_RES_CAP:0x100000
PAGE_SIZE:4096
LOG2_PAGE_SIZE:12
LOG2_PAGE_TABLE_SIZE:9
page_table_levels:5
WARNING: physical memory size is smaller than virtual memory size
FDiP enabled with aggresivity 16

*** ChampSim Multicore Out-of-Order Simulator ***

Warmup Instructions: 50000000
Simulation Instructions: 100000000
Number of CPUs: 1
Small page size: 4096
Large page size: 2097152

CPU 0 Bimodal branch predictor
Basic BTB sets: 1024 ways: 8 indirect buffer size: 4096 RAS size: 64
Instruction page size distrubution: 0
Loading instruction page size distribution from /home/bsc/bsc018186/scratch/itp_asplos25_AE/dump/srv642_ap.pdst
Data page size distrubution: 0
Loading data page size distribution from /home/bsc/bsc018186/scratch/itp_asplos25_AE/dump/srv642_ap.pdst
cpu0_L2C IP-based stride prefetcher
cpu0_L1D next line prefetcher
CHiRPing...
cpu0_L1I next line prefetcher
Off-chip DRAM Size: 4 GiB Channels: 1 Width: 64-bit Data Rate: 3200 MT/s
Heartbeat CPU 0 instructions: 10000002 cycles: 2500219 heartbeat IPC: 3.99966 cumulative IPC: 3.99966 (Simulation time: 0 hr 0 min 39 sec) 
Heartbeat CPU 0 instructions: 20000002 cycles: 5000237 heartbeat IPC: 3.99998 cumulative IPC: 3.99982 (Simulation time: 0 hr 1 min 20 sec) 
Heartbeat CPU 0 instructions: 30000000 cycles: 7500237 heartbeat IPC: 4 cumulative IPC: 3.99988 (Simulation time: 0 hr 2 min 2 sec) 
Heartbeat CPU 0 instructions: 40000001 cycles: 10000269 heartbeat IPC: 3.99995 cumulative IPC: 3.9999 (Simulation time: 0 hr 2 min 44 sec) 
Heartbeat CPU 0 instructions: 50000001 cycles: 12500269 heartbeat IPC: 4 cumulative IPC: 3.99992 (Simulation time: 0 hr 3 min 26 sec) 
Warmup finished CPU 0 instructions: 50000001 cycles: 12500270 cumulative IPC: 3.99992 (Simulation time: 0 hr 3 min 26 sec) 

Warmup complete CPU 0 instructions: 50000001 cycles: 12500270 (Simulation time: 0 hr 3 min 26 sec) 

Heartbeat CPU 0 instructions: 60000002 cycles: 27071844 heartbeat IPC: 0.686268 cumulative IPC: 0.686268 (Simulation time: 0 hr 4 min 31 sec) 
Heartbeat CPU 0 instructions: 70000000 cycles: 41793962 heartbeat IPC: 0.67925 cumulative IPC: 0.682741 (Simulation time: 0 hr 5 min 37 sec) 
Heartbeat CPU 0 instructions: 80000004 cycles: 56078787 heartbeat IPC: 0.700044 cumulative IPC: 0.688413 (Simulation time: 0 hr 6 min 42 sec) 
Heartbeat CPU 0 instructions: 90000003 cycles: 70499089 heartbeat IPC: 0.693467 cumulative IPC: 0.68967 (Simulation time: 0 hr 7 min 46 sec) 
Heartbeat CPU 0 instructions: 100000004 cycles: 84062232 heartbeat IPC: 0.737293 cumulative IPC: 0.698696 (Simulation time: 0 hr 8 min 50 sec) 
*** Reached end of trace: /gpfs/projects/bsc18/MN4/bsc18/romol/ChampSim/traces/qualcomm_srv/srv642_ap.champsimtrace.xz
Heartbeat CPU 0 instructions: 110000001 cycles: 98661420 heartbeat IPC: 0.68497 cumulative IPC: 0.69637 (Simulation time: 0 hr 9 min 55 sec) 
Heartbeat CPU 0 instructions: 120000000 cycles: 113199522 heartbeat IPC: 0.687848 cumulative IPC: 0.69514 (Simulation time: 0 hr 11 min 0 sec) 
Heartbeat CPU 0 instructions: 130000000 cycles: 126681682 heartbeat IPC: 0.741721 cumulative IPC: 0.70064 (Simulation time: 0 hr 12 min 4 sec) 
Heartbeat CPU 0 instructions: 140000002 cycles: 140297620 heartbeat IPC: 0.734434 cumulative IPC: 0.70424 (Simulation time: 0 hr 13 min 8 sec) 
Heartbeat CPU 0 instructions: 150000002 cycles: 154116524 heartbeat IPC: 0.723647 cumulative IPC: 0.706134 (Simulation time: 0 hr 14 min 13 sec) 
Simulation finished CPU 0 instructions: 100000001 cycles: 141616255 cumulative IPC: 0.706134 (Simulation time: 0 hr 14 min 13 sec) 

Simulation complete CPU 0 instructions: 100000001 cycles: 141616255 (Simulation time: 0 hr 14 min 13 sec) 


ChampSim completed all CPUs

Saving instructions large page distribution to /home/bsc/bsc018186/scratch/itp_asplos25_AE/dump/srv642_ap.pdst...
Saving data large page distribution to /home/bsc/bsc018186/scratch/itp_asplos25_AE/dump/srv642_ap.pdst...
=== Simulation ===
CPU 0 runs /gpfs/projects/bsc18/MN4/bsc18/romol/ChampSim/traces/qualcomm_srv/srv642_ap.champsimtrace.xz

Region of Interest Statistics

CPU 0 cumulative IPC: 0.706134 instructions: 100000001 cycles: 141616255
CPU 0 Branch Prediction Accuracy: 83.3684% MPKI: 29.717 Average ROB Occupancy at Mispredict: 12.3373
Branch type MPKI
BRANCH_DIRECT_JUMP: 1.01965
BRANCH_INDIRECT: 15.3331
BRANCH_CONDITIONAL: 9.67066
BRANCH_DIRECT_CALL: 1.8437
BRANCH_INDIRECT_CALL: 0.51454
BRANCH_RETURN: 1.33528

Instructions large pages: 0
Instructions small pages: 1029
Large page distribution for instructions: 0%

Data large pages: 0
Data small pages: 10108
Large page distribution for data: 0%

cpu0_L1I TOTAL       ACCESS:   35169740  HIT:   26853808  MISS:    8315932  iACCESS:   35169740  iHIT:   26853808  iMISS:    8315932  dACCESS:          0  dHIT:          0  dMISS:          0  itACCESS:          0  itHIT:          0  itMISS:          0  dtACCESS:          0  dtHIT:          0  dtMISS:          0
cpu0_L1I LOAD         ACCESS:   10327779  HIT:    8001879  MISS:    2325900  iACCESS:   10327779  iHIT:    8001879  iMISS:    2325900  dACCESS:          0  dHIT:          0  dMISS:          0  itACCESS:          0  itHIT:          0  itMISS:          0  dtACCESS:          0  dtHIT:          0  dtMISS:          0
cpu0_L1I RFO          ACCESS:          0  HIT:          0  MISS:          0  iACCESS:          0  iHIT:          0  iMISS:          0  dACCESS:          0  dHIT:          0  dMISS:          0  itACCESS:          0  itHIT:          0  itMISS:          0  dtACCESS:          0  dtHIT:          0  dtMISS:          0
cpu0_L1I PREFETCH     ACCESS:   24841961  HIT:   18851929  MISS:    5990032  iACCESS:   24841961  iHIT:   18851929  iMISS:    5990032  dACCESS:          0  dHIT:          0  dMISS:          0  itACCESS:          0  itHIT:          0  itMISS:          0  dtACCESS:          0  dtHIT:          0  dtMISS:          0
cpu0_L1I WRITE        ACCESS:          0  HIT:          0  MISS:          0  iACCESS:          0  iHIT:          0  iMISS:          0  dACCESS:          0  dHIT:          0  dMISS:          0  itACCESS:          0  itHIT:          0  itMISS:          0  dtACCESS:          0  dtHIT:          0  dtMISS:          0
cpu0_L1I TRANSLATION  ACCESS:          0  HIT:          0  MISS:          0  iACCESS:          0  iHIT:          0  iMISS:          0  dACCESS:          0  dHIT:          0  dMISS:          0  itACCESS:          0  itHIT:          0  itMISS:          0  dtACCESS:          0  dtHIT:          0  dtMISS:          0
cpu0_L1I PREFETCH  REQUESTED:   27213146  ISSUED:   27211930  CROSSED:          0  USEFUL:    1900445  USELESS:     626136
cpu0_L1I AVERAGE iMISS LATENCY: 13.645 cycles
cpu0_L1I AVERAGE dMISS LATENCY: 0 cycles
cpu0_L1I AVERAGE itMISS LATENCY: 0 cycles
cpu0_L1I AVERAGE dtMISS LATENCY: 0 cycles
cpu0_L1I PAGE CROSSINGS (TLB HIT):         0 
cpu0_L1I PAGE CROSSINGS (TLB MISS):         0 
cpu0_L1I AVERAGE MISS LATENCY: 13.645 cycles
cpu0_ITLB TOTAL       ACCESS:   29119510  HIT:   27146766  MISS:    1972744  iACCESS:   29119510  iHIT:   27146766  iMISS:    1972744  dACCESS:          0  dHIT:          0  dMISS:          0  itACCESS:          0  itHIT:          0  itMISS:          0  dtACCESS:          0  dtHIT:          0  dtMISS:          0
cpu0_ITLB LOAD         ACCESS:   29119510  HIT:   27146766  MISS:    1972744  iACCESS:   29119510  iHIT:   27146766  iMISS:    1972744  dACCESS:          0  dHIT:          0  dMISS:          0  itACCESS:          0  itHIT:          0  itMISS:          0  dtACCESS:          0  dtHIT:          0  dtMISS:          0
cpu0_ITLB RFO          ACCESS:          0  HIT:          0  MISS:          0  iACCESS:          0  iHIT:          0  iMISS:          0  dACCESS:          0  dHIT:          0  dMISS:          0  itACCESS:          0  itHIT:          0  itMISS:          0  dtACCESS:          0  dtHIT:          0  dtMISS:          0
cpu0_ITLB PREFETCH     ACCESS:          0  HIT:          0  MISS:          0  iACCESS:          0  iHIT:          0  iMISS:          0  dACCESS:          0  dHIT:          0  dMISS:          0  itACCESS:          0  itHIT:          0  itMISS:          0  dtACCESS:          0  dtHIT:          0  dtMISS:          0
cpu0_ITLB WRITE        ACCESS:          0  HIT:          0  MISS:          0  iACCESS:          0  iHIT:          0  iMISS:          0  dACCESS:          0  dHIT:          0  dMISS:          0  itACCESS:          0  itHIT:          0  itMISS:          0  dtACCESS:          0  dtHIT:          0  dtMISS:          0
cpu0_ITLB TRANSLATION  ACCESS:          0  HIT:          0  MISS:          0  iACCESS:          0  iHIT:          0  iMISS:          0  dACCESS:          0  dHIT:          0  dMISS:          0  itACCESS:          0  itHIT:          0  itMISS:          0  dtACCESS:          0  dtHIT:          0  dtMISS:          0
cpu0_ITLB PREFETCH  REQUESTED:          0  ISSUED:          0  CROSSED:          0  USEFUL:     322318  USELESS:      66343
cpu0_ITLB AVERAGE iMISS LATENCY: 3.17815 cycles
cpu0_ITLB AVERAGE dMISS LATENCY: 0 cycles
cpu0_ITLB AVERAGE itMISS LATENCY: 0 cycles
cpu0_ITLB AVERAGE dtMISS LATENCY: 0 cycles
cpu0_ITLB PAGE CROSSINGS (TLB HIT):         0 
cpu0_ITLB PAGE CROSSINGS (TLB MISS):         0 
cpu0_ITLB AVERAGE MISS LATENCY: 3.17815 cycles
cpu0_DTLB TOTAL       ACCESS:   27719691  HIT:   25632120  MISS:    2087571  iACCESS:          0  iHIT:          0  iMISS:          0  dACCESS:   27719691  dHIT:   25632120  dMISS:    2087571  itACCESS:          0  itHIT:          0  itMISS:          0  dtACCESS:          0  dtHIT:          0  dtMISS:          0
cpu0_DTLB LOAD         ACCESS:   27719691  HIT:   25632120  MISS:    2087571  iACCESS:          0  iHIT:          0  iMISS:          0  dACCESS:   27719691  dHIT:   25632120  dMISS:    2087571  itACCESS:          0  itHIT:          0  itMISS:          0  dtACCESS:          0  dtHIT:          0  dtMISS:          0
cpu0_DTLB RFO          ACCESS:          0  HIT:          0  MISS:          0  iACCESS:          0  iHIT:          0  iMISS:          0  dACCESS:          0  dHIT:          0  dMISS:          0  itACCESS:          0  itHIT:          0  itMISS:          0  dtACCESS:          0  dtHIT:          0  dtMISS:          0
cpu0_DTLB PREFETCH     ACCESS:          0  HIT:          0  MISS:          0  iACCESS:          0  iHIT:          0  iMISS:          0  dACCESS:          0  dHIT:          0  dMISS:          0  itACCESS:          0  itHIT:          0  itMISS:          0  dtACCESS:          0  dtHIT:          0  dtMISS:          0
cpu0_DTLB WRITE        ACCESS:          0  HIT:          0  MISS:          0  iACCESS:          0  iHIT:          0  iMISS:          0  dACCESS:          0  dHIT:          0  dMISS:          0  itACCESS:          0  itHIT:          0  itMISS:          0  dtACCESS:          0  dtHIT:          0  dtMISS:          0
cpu0_DTLB TRANSLATION  ACCESS:          0  HIT:          0  MISS:          0  iACCESS:          0  iHIT:          0  iMISS:          0  dACCESS:          0  dHIT:          0  dMISS:          0  itACCESS:          0  itHIT:          0  itMISS:          0  dtACCESS:          0  dtHIT:          0  dtMISS:          0
cpu0_DTLB PREFETCH  REQUESTED:          0  ISSUED:          0  CROSSED:          0  USEFUL:          0  USELESS:          0
cpu0_DTLB AVERAGE iMISS LATENCY: 0 cycles
cpu0_DTLB AVERAGE dMISS LATENCY: 10.1814 cycles
cpu0_DTLB AVERAGE itMISS LATENCY: 0 cycles
cpu0_DTLB AVERAGE dtMISS LATENCY: 0 cycles
cpu0_DTLB PAGE CROSSINGS (TLB HIT):         0 
cpu0_DTLB PAGE CROSSINGS (TLB MISS):         0 
cpu0_DTLB AVERAGE MISS LATENCY: 10.1814 cycles
cpu0_STLB TOTAL       ACCESS:    1627288  HIT:    1451919  MISS:     175369  iACCESS:     388677  iHIT:     326070  iMISS:      62607  dACCESS:    1238611  dHIT:    1125849  dMISS:     112762  itACCESS:          0  itHIT:          0  itMISS:          0  dtACCESS:          0  dtHIT:          0  dtMISS:          0
cpu0_STLB LOAD         ACCESS:    1627288  HIT:    1451919  MISS:     175369  iACCESS:     388677  iHIT:     326070  iMISS:      62607  dACCESS:    1238611  dHIT:    1125849  dMISS:     112762  itACCESS:          0  itHIT:          0  itMISS:          0  dtACCESS:          0  dtHIT:          0  dtMISS:          0
cpu0_STLB RFO          ACCESS:          0  HIT:          0  MISS:          0  iACCESS:          0  iHIT:          0  iMISS:          0  dACCESS:          0  dHIT:          0  dMISS:          0  itACCESS:          0  itHIT:          0  itMISS:          0  dtACCESS:          0  dtHIT:          0  dtMISS:          0
cpu0_STLB PREFETCH     ACCESS:          0  HIT:          0  MISS:          0  iACCESS:          0  iHIT:          0  iMISS:          0  dACCESS:          0  dHIT:          0  dMISS:          0  itACCESS:          0  itHIT:          0  itMISS:          0  dtACCESS:          0  dtHIT:          0  dtMISS:          0
cpu0_STLB WRITE        ACCESS:          0  HIT:          0  MISS:          0  iACCESS:          0  iHIT:          0  iMISS:          0  dACCESS:          0  dHIT:          0  dMISS:          0  itACCESS:          0  itHIT:          0  itMISS:          0  dtACCESS:          0  dtHIT:          0  dtMISS:          0
cpu0_STLB TRANSLATION  ACCESS:          0  HIT:          0  MISS:          0  iACCESS:          0  iHIT:          0  iMISS:          0  dACCESS:          0  dHIT:          0  dMISS:          0  itACCESS:          0  itHIT:          0  itMISS:          0  dtACCESS:          0  dtHIT:          0  dtMISS:          0
cpu0_STLB PREFETCH  REQUESTED:          0  ISSUED:          0  CROSSED:          0  USEFUL:          0  USELESS:          0
cpu0_STLB AVERAGE iMISS LATENCY: 18.2148 cycles
cpu0_STLB AVERAGE dMISS LATENCY: 64.8944 cycles
cpu0_STLB AVERAGE itMISS LATENCY: 0 cycles
cpu0_STLB AVERAGE dtMISS LATENCY: 0 cycles
cpu0_STLB PAGE CROSSINGS (TLB HIT):         0 
cpu0_STLB PAGE CROSSINGS (TLB MISS):         0 
cpu0_STLB AVERAGE MISS LATENCY: 83.1092 cycles
cpu0_L1D TOTAL       ACCESS:   41481203  HIT:   38042334  MISS:    3438869  iACCESS:          0  iHIT:          0  iMISS:          0  dACCESS:   41241835  dHIT:   38021203  dMISS:    3220632  itACCESS:      68154  itHIT:       9729  itMISS:      58425  dtACCESS:     171214  dtHIT:      11402  dtMISS:     159812
cpu0_L1D LOAD         ACCESS:   18912028  HIT:   17443501  MISS:    1468527  iACCESS:          0  iHIT:          0  iMISS:          0  dACCESS:   18912028  dHIT:   17443501  dMISS:    1468527  itACCESS:          0  itHIT:          0  itMISS:          0  dtACCESS:          0  dtHIT:          0  dtMISS:          0
cpu0_L1D RFO          ACCESS:          0  HIT:          0  MISS:          0  iACCESS:          0  iHIT:          0  iMISS:          0  dACCESS:          0  dHIT:          0  dMISS:          0  itACCESS:          0  itHIT:          0  itMISS:          0  dtACCESS:          0  dtHIT:          0  dtMISS:          0
cpu0_L1D PREFETCH     ACCESS:   12157031  HIT:   10824266  MISS:    1332765  iACCESS:          0  iHIT:          0  iMISS:          0  dACCESS:   12157031  dHIT:   10824266  dMISS:    1332765  itACCESS:          0  itHIT:          0  itMISS:          0  dtACCESS:          0  dtHIT:          0  dtMISS:          0
cpu0_L1D WRITE        ACCESS:   10172776  HIT:    9753436  MISS:     419340  iACCESS:          0  iHIT:          0  iMISS:          0  dACCESS:   10172776  dHIT:    9753436  dMISS:     419340  itACCESS:          0  itHIT:          0  itMISS:          0  dtACCESS:          0  dtHIT:          0  dtMISS:          0
cpu0_L1D TRANSLATION  ACCESS:     239368  HIT:      21131  MISS:     218237  iACCESS:          0  iHIT:          0  iMISS:          0  dACCESS:          0  dHIT:          0  dMISS:          0  itACCESS:      68154  itHIT:       9729  itMISS:      58425  dtACCESS:     171214  dtHIT:      11402  dtMISS:     159812
cpu0_L1D PREFETCH  REQUESTED:   18912028  ISSUED:   17031990  CROSSED:          0  USEFUL:     307442  USELESS:     697711
cpu0_L1D AVERAGE iMISS LATENCY: 0 cycles
cpu0_L1D AVERAGE dMISS LATENCY: 33.846 cycles
cpu0_L1D AVERAGE itMISS LATENCY: 0.771412 cycles
cpu0_L1D AVERAGE dtMISS LATENCY: 2.56444 cycles
cpu0_L1D PAGE CROSSINGS (TLB HIT):         0 
cpu0_L1D PAGE CROSSINGS (TLB MISS):         0 
cpu0_L1D AVERAGE MISS LATENCY: 37.1819 cycles
cpu0_L2C TOTAL       ACCESS:    6937643  HIT:    1647292  MISS:    5290351  iACCESS:    3281929  iHIT:     821289  iMISS:    2460640  dACCESS:    3447259  dHIT:     704753  dMISS:    2742506  itACCESS:      58425  itHIT:      41495  itMISS:      16930  dtACCESS:     150030  dtHIT:      79755  dtMISS:      70275
cpu0_L2C LOAD         ACCESS:    1713097  HIT:     291339  MISS:    1421758  iACCESS:     788176  iHIT:     138529  iMISS:     649647  dACCESS:     924921  dHIT:     152810  dMISS:     772111  itACCESS:          0  itHIT:          0  itMISS:          0  dtACCESS:          0  dtHIT:          0  dtMISS:          0
cpu0_L2C RFO          ACCESS:     157467  HIT:      53764  MISS:     103703  iACCESS:          0  iHIT:          0  iMISS:          0  dACCESS:     157467  dHIT:      53764  dMISS:     103703  itACCESS:          0  itHIT:          0  itMISS:          0  dtACCESS:          0  dtHIT:          0  dtMISS:          0
cpu0_L2C PREFETCH     ACCESS:    4574834  HIT:    1037204  MISS:    3537630  iACCESS:    2493753  iHIT:     682760  iMISS:    1810993  dACCESS:    2081081  dHIT:     354444  dMISS:    1726637  itACCESS:          0  itHIT:          0  itMISS:          0  dtACCESS:          0  dtHIT:          0  dtMISS:          0
cpu0_L2C WRITE        ACCESS:     283790  HIT:     143735  MISS:     140055  iACCESS:          0  iHIT:          0  iMISS:          0  dACCESS:     283790  dHIT:     143735  dMISS:     140055  itACCESS:          0  itHIT:          0  itMISS:          0  dtACCESS:          0  dtHIT:          0  dtMISS:          0
cpu0_L2C TRANSLATION  ACCESS:     208455  HIT:     121250  MISS:      87205  iACCESS:          0  iHIT:          0  iMISS:          0  dACCESS:          0  dHIT:          0  dMISS:          0  itACCESS:      58425  itHIT:      41495  itMISS:      16930  dtACCESS:     150030  dtHIT:      79755  dtMISS:      70275
cpu0_L2C PREFETCH  REQUESTED:    1323522  ISSUED:    1323522  CROSSED:          0  USEFUL:     393900  USELESS:     365468
cpu0_L2C AVERAGE iMISS LATENCY: 15.7263 cycles
cpu0_L2C AVERAGE dMISS LATENCY: 25.3888 cycles
cpu0_L2C AVERAGE itMISS LATENCY: 0.398558 cycles
cpu0_L2C AVERAGE dtMISS LATENCY: 1.39689 cycles
cpu0_L2C PAGE CROSSINGS (TLB HIT):         0 
cpu0_L2C PAGE CROSSINGS (TLB MISS):         0 
cpu0_L2C AVERAGE MISS LATENCY: 42.9105 cycles
LLC TOTAL       ACCESS:    5175477  HIT:    4353418  MISS:     822059  iACCESS:    2406944  iHIT:    2160571  iMISS:     246373  dACCESS:    2681328  dHIT:    2150519  dMISS:     530809  itACCESS:      16930  itHIT:       6606  itMISS:      10324  dtACCESS:      70275  dtHIT:      35722  dtMISS:      34553
LLC LOAD         ACCESS:    1419893  HIT:    1236084  MISS:     183809  iACCESS:     648362  iHIT:     595031  iMISS:      53331  dACCESS:     771531  dHIT:     641053  dMISS:     130478  itACCESS:          0  itHIT:          0  itMISS:          0  dtACCESS:          0  dtHIT:          0  dtMISS:          0
LLC RFO          ACCESS:     103700  HIT:      67692  MISS:      36008  iACCESS:          0  iHIT:          0  iMISS:          0  dACCESS:     103700  dHIT:      67692  dMISS:      36008  itACCESS:          0  itHIT:          0  itMISS:          0  dtACCESS:          0  dtHIT:          0  dtMISS:          0
LLC PREFETCH     ACCESS:    3430413  HIT:    2881945  MISS:     548468  iACCESS:    1758582  iHIT:    1565540  iMISS:     193042  dACCESS:    1671831  dHIT:    1316405  dMISS:     355426  itACCESS:          0  itHIT:          0  itMISS:          0  dtACCESS:          0  dtHIT:          0  dtMISS:          0
LLC WRITE        ACCESS:     134266  HIT:     125369  MISS:       8897  iACCESS:          0  iHIT:          0  iMISS:          0  dACCESS:     134266  dHIT:     125369  dMISS:       8897  itACCESS:          0  itHIT:          0  itMISS:          0  dtACCESS:          0  dtHIT:          0  dtMISS:          0
LLC TRANSLATION  ACCESS:      87205  HIT:      42328  MISS:      44877  iACCESS:          0  iHIT:          0  iMISS:          0  dACCESS:          0  dHIT:          0  dMISS:          0  itACCESS:      16930  itHIT:       6606  itMISS:      10324  dtACCESS:      70275  dtHIT:      35722  dtMISS:      34553
LLC PREFETCH  REQUESTED:          0  ISSUED:          0  CROSSED:          0  USEFUL:          0  USELESS:          0
LLC AVERAGE iMISS LATENCY: 44.6999 cycles
LLC AVERAGE dMISS LATENCY: 103.58 cycles
LLC AVERAGE itMISS LATENCY: 2.16172 cycles
LLC AVERAGE dtMISS LATENCY: 7.32476 cycles
LLC PAGE CROSSINGS (TLB HIT):         0 
LLC PAGE CROSSINGS (TLB MISS):         0 
LLC AVERAGE MISS LATENCY: 157.766 cycles

PageTableWalker TOTAL       ACCESS:      86882  
PageTableWalker AVERAGE LATENCY: 4.60899 cycles
PageTableWalker TOTAL LATENCY: 400438 cycles

DRAM Statistics
Channel 0
 RQ ROW_BUFFER_HIT:     214807
  ROW_BUFFER_MISS:     598304
 AVG DBUS CONGESTED CYCLE:    3.62991
 WQ ROW_BUFFER_HIT:      15563
  ROW_BUFFER_MISS:      21037  FULL:          0

