last_page:0x200000000000000
VMEM_RES_CAP:0x100000
PAGE_SIZE:4096
LOG2_PAGE_SIZE:12
LOG2_PAGE_TABLE_SIZE:9
page_table_levels:5
WARNING: physical memory size is smaller than virtual memory size
FDiP enabled with aggresivity 16

*** ChampSim Multicore Out-of-Order Simulator ***

Warmup Instructions: 50000000
Simulation Instructions: 100000000
Number of CPUs: 1
Small page size: 4096
Large page size: 2097152

CPU 0 Bimodal branch predictor
Basic BTB sets: 1024 ways: 8 indirect buffer size: 4096 RAS size: 64
Instruction page size distrubution: 0
Loading instruction page size distribution from /home/bsc/bsc018186/scratch/itp_asplos25_AE/dump/srv642_ap.pdst
Data page size distrubution: 0
Loading data page size distribution from /home/bsc/bsc018186/scratch/itp_asplos25_AE/dump/srv642_ap.pdst
cpu0_L2C IP-based stride prefetcher
cpu0_L2C is using PTP replacement policy:
	TLB_STRESS_THRESHOLD:0
	PTE_EVICTION_RATIO:0
cpu0_L1D next line prefetcher
CHiRPing...
cpu0_L1I next line prefetcher
Off-chip DRAM Size: 4 GiB Channels: 1 Width: 64-bit Data Rate: 3200 MT/s
Heartbeat CPU 0 instructions: 10000003 cycles: 2500216 heartbeat IPC: 3.99966 cumulative IPC: 3.99966 (Simulation time: 0 hr 0 min 39 sec) 
Heartbeat CPU 0 instructions: 20000002 cycles: 5000225 heartbeat IPC: 3.99999 cumulative IPC: 3.99983 (Simulation time: 0 hr 1 min 19 sec) 
Heartbeat CPU 0 instructions: 30000001 cycles: 7500248 heartbeat IPC: 3.99997 cumulative IPC: 3.99987 (Simulation time: 0 hr 2 min 0 sec) 
Heartbeat CPU 0 instructions: 40000000 cycles: 10000291 heartbeat IPC: 3.99994 cumulative IPC: 3.99989 (Simulation time: 0 hr 2 min 41 sec) 
Heartbeat CPU 0 instructions: 50000000 cycles: 12500291 heartbeat IPC: 4 cumulative IPC: 3.99991 (Simulation time: 0 hr 3 min 23 sec) 
Warmup finished CPU 0 instructions: 50000000 cycles: 12500292 cumulative IPC: 3.99991 (Simulation time: 0 hr 3 min 23 sec) 

Warmup complete CPU 0 instructions: 50000000 cycles: 12500292 (Simulation time: 0 hr 3 min 23 sec) 

Heartbeat CPU 0 instructions: 60000002 cycles: 27001334 heartbeat IPC: 0.689606 cumulative IPC: 0.689606 (Simulation time: 0 hr 4 min 27 sec) 
Heartbeat CPU 0 instructions: 70000000 cycles: 41601242 heartbeat IPC: 0.684936 cumulative IPC: 0.687263 (Simulation time: 0 hr 5 min 32 sec) 
Heartbeat CPU 0 instructions: 80000004 cycles: 55844446 heartbeat IPC: 0.70209 cumulative IPC: 0.692135 (Simulation time: 0 hr 6 min 35 sec) 
Heartbeat CPU 0 instructions: 90000000 cycles: 70258664 heartbeat IPC: 0.69376 cumulative IPC: 0.692541 (Simulation time: 0 hr 7 min 40 sec) 
Heartbeat CPU 0 instructions: 100000004 cycles: 83844275 heartbeat IPC: 0.736074 cumulative IPC: 0.700831 (Simulation time: 0 hr 8 min 43 sec) 
*** Reached end of trace: /gpfs/projects/bsc18/MN4/bsc18/romol/ChampSim/traces/qualcomm_srv/srv642_ap.champsimtrace.xz
Heartbeat CPU 0 instructions: 110000001 cycles: 98288360 heartbeat IPC: 0.692325 cumulative IPC: 0.699398 (Simulation time: 0 hr 9 min 47 sec) 
Heartbeat CPU 0 instructions: 120000000 cycles: 112811082 heartbeat IPC: 0.688577 cumulative IPC: 0.697832 (Simulation time: 0 hr 10 min 52 sec) 
Heartbeat CPU 0 instructions: 130000000 cycles: 126239682 heartbeat IPC: 0.74468 cumulative IPC: 0.703363 (Simulation time: 0 hr 11 min 55 sec) 
Heartbeat CPU 0 instructions: 140000003 cycles: 139918812 heartbeat IPC: 0.731041 cumulative IPC: 0.706334 (Simulation time: 0 hr 12 min 59 sec) 
Heartbeat CPU 0 instructions: 150000002 cycles: 153819204 heartbeat IPC: 0.719405 cumulative IPC: 0.70762 (Simulation time: 0 hr 14 min 3 sec) 
Simulation finished CPU 0 instructions: 100000002 cycles: 141318913 cumulative IPC: 0.70762 (Simulation time: 0 hr 14 min 3 sec) 

Simulation complete CPU 0 instructions: 100000002 cycles: 141318913 (Simulation time: 0 hr 14 min 3 sec) 


ChampSim completed all CPUs

Saving instructions large page distribution to /home/bsc/bsc018186/scratch/itp_asplos25_AE/dump/srv642_ap.pdst...
Saving data large page distribution to /home/bsc/bsc018186/scratch/itp_asplos25_AE/dump/srv642_ap.pdst...
=== Simulation ===
CPU 0 runs /gpfs/projects/bsc18/MN4/bsc18/romol/ChampSim/traces/qualcomm_srv/srv642_ap.champsimtrace.xz

Region of Interest Statistics

CPU 0 cumulative IPC: 0.70762 instructions: 100000002 cycles: 141318913
CPU 0 Branch Prediction Accuracy: 83.3684% MPKI: 29.717 Average ROB Occupancy at Mispredict: 12.4005
Branch type MPKI
BRANCH_DIRECT_JUMP: 1.01965
BRANCH_INDIRECT: 15.3331
BRANCH_CONDITIONAL: 9.67066
BRANCH_DIRECT_CALL: 1.8437
BRANCH_INDIRECT_CALL: 0.51454
BRANCH_RETURN: 1.33528

Instructions large pages: 0
Instructions small pages: 1029
Large page distribution for instructions: 0%

Data large pages: 0
Data small pages: 10108
Large page distribution for data: 0%

cpu0_L1I TOTAL       ACCESS:   35254440  HIT:   26845306  MISS:    8409134  iACCESS:   35254440  iHIT:   26845306  iMISS:    8409134  dACCESS:          0  dHIT:          0  dMISS:          0  itACCESS:          0  itHIT:          0  itMISS:          0  dtACCESS:          0  dtHIT:          0  dtMISS:          0
cpu0_L1I LOAD         ACCESS:   10348588  HIT:    7997499  MISS:    2351089  iACCESS:   10348588  iHIT:    7997499  iMISS:    2351089  dACCESS:          0  dHIT:          0  dMISS:          0  itACCESS:          0  itHIT:          0  itMISS:          0  dtACCESS:          0  dtHIT:          0  dtMISS:          0
cpu0_L1I RFO          ACCESS:          0  HIT:          0  MISS:          0  iACCESS:          0  iHIT:          0  iMISS:          0  dACCESS:          0  dHIT:          0  dMISS:          0  itACCESS:          0  itHIT:          0  itMISS:          0  dtACCESS:          0  dtHIT:          0  dtMISS:          0
cpu0_L1I PREFETCH     ACCESS:   24905852  HIT:   18847807  MISS:    6058045  iACCESS:   24905852  iHIT:   18847807  iMISS:    6058045  dACCESS:          0  dHIT:          0  dMISS:          0  itACCESS:          0  itHIT:          0  itMISS:          0  dtACCESS:          0  dtHIT:          0  dtMISS:          0
cpu0_L1I WRITE        ACCESS:          0  HIT:          0  MISS:          0  iACCESS:          0  iHIT:          0  iMISS:          0  dACCESS:          0  dHIT:          0  dMISS:          0  itACCESS:          0  itHIT:          0  itMISS:          0  dtACCESS:          0  dtHIT:          0  dtMISS:          0
cpu0_L1I TRANSLATION  ACCESS:          0  HIT:          0  MISS:          0  iACCESS:          0  iHIT:          0  iMISS:          0  dACCESS:          0  dHIT:          0  dMISS:          0  itACCESS:          0  itHIT:          0  itMISS:          0  dtACCESS:          0  dtHIT:          0  dtMISS:          0
cpu0_L1I PREFETCH  REQUESTED:   27233010  ISSUED:   27231390  CROSSED:          0  USEFUL:    1900871  USELESS:     626112
cpu0_L1I AVERAGE iMISS LATENCY: 14.0134 cycles
cpu0_L1I AVERAGE dMISS LATENCY: 0 cycles
cpu0_L1I AVERAGE itMISS LATENCY: 0 cycles
cpu0_L1I AVERAGE dtMISS LATENCY: 0 cycles
cpu0_L1I PAGE CROSSINGS (TLB HIT):         0 
cpu0_L1I PAGE CROSSINGS (TLB MISS):         0 
cpu0_L1I AVERAGE MISS LATENCY: 14.0134 cycles
cpu0_ITLB TOTAL       ACCESS:   29137452  HIT:   27163918  MISS:    1973534  iACCESS:   29137452  iHIT:   27163918  iMISS:    1973534  dACCESS:          0  dHIT:          0  dMISS:          0  itACCESS:          0  itHIT:          0  itMISS:          0  dtACCESS:          0  dtHIT:          0  dtMISS:          0
cpu0_ITLB LOAD         ACCESS:   29137452  HIT:   27163918  MISS:    1973534  iACCESS:   29137452  iHIT:   27163918  iMISS:    1973534  dACCESS:          0  dHIT:          0  dMISS:          0  itACCESS:          0  itHIT:          0  itMISS:          0  dtACCESS:          0  dtHIT:          0  dtMISS:          0
cpu0_ITLB RFO          ACCESS:          0  HIT:          0  MISS:          0  iACCESS:          0  iHIT:          0  iMISS:          0  dACCESS:          0  dHIT:          0  dMISS:          0  itACCESS:          0  itHIT:          0  itMISS:          0  dtACCESS:          0  dtHIT:          0  dtMISS:          0
cpu0_ITLB PREFETCH     ACCESS:          0  HIT:          0  MISS:          0  iACCESS:          0  iHIT:          0  iMISS:          0  dACCESS:          0  dHIT:          0  dMISS:          0  itACCESS:          0  itHIT:          0  itMISS:          0  dtACCESS:          0  dtHIT:          0  dtMISS:          0
cpu0_ITLB WRITE        ACCESS:          0  HIT:          0  MISS:          0  iACCESS:          0  iHIT:          0  iMISS:          0  dACCESS:          0  dHIT:          0  dMISS:          0  itACCESS:          0  itHIT:          0  itMISS:          0  dtACCESS:          0  dtHIT:          0  dtMISS:          0
cpu0_ITLB TRANSLATION  ACCESS:          0  HIT:          0  MISS:          0  iACCESS:          0  iHIT:          0  iMISS:          0  dACCESS:          0  dHIT:          0  dMISS:          0  itACCESS:          0  itHIT:          0  itMISS:          0  dtACCESS:          0  dtHIT:          0  dtMISS:          0
cpu0_ITLB PREFETCH  REQUESTED:          0  ISSUED:          0  CROSSED:          0  USEFUL:     322212  USELESS:      66445
cpu0_ITLB AVERAGE iMISS LATENCY: 2.88376 cycles
cpu0_ITLB AVERAGE dMISS LATENCY: 0 cycles
cpu0_ITLB AVERAGE itMISS LATENCY: 0 cycles
cpu0_ITLB AVERAGE dtMISS LATENCY: 0 cycles
cpu0_ITLB PAGE CROSSINGS (TLB HIT):         0 
cpu0_ITLB PAGE CROSSINGS (TLB MISS):         0 
cpu0_ITLB AVERAGE MISS LATENCY: 2.88376 cycles
cpu0_DTLB TOTAL       ACCESS:   27715027  HIT:   25629106  MISS:    2085921  iACCESS:          0  iHIT:          0  iMISS:          0  dACCESS:   27715027  dHIT:   25629106  dMISS:    2085921  itACCESS:          0  itHIT:          0  itMISS:          0  dtACCESS:          0  dtHIT:          0  dtMISS:          0
cpu0_DTLB LOAD         ACCESS:   27715027  HIT:   25629106  MISS:    2085921  iACCESS:          0  iHIT:          0  iMISS:          0  dACCESS:   27715027  dHIT:   25629106  dMISS:    2085921  itACCESS:          0  itHIT:          0  itMISS:          0  dtACCESS:          0  dtHIT:          0  dtMISS:          0
cpu0_DTLB RFO          ACCESS:          0  HIT:          0  MISS:          0  iACCESS:          0  iHIT:          0  iMISS:          0  dACCESS:          0  dHIT:          0  dMISS:          0  itACCESS:          0  itHIT:          0  itMISS:          0  dtACCESS:          0  dtHIT:          0  dtMISS:          0
cpu0_DTLB PREFETCH     ACCESS:          0  HIT:          0  MISS:          0  iACCESS:          0  iHIT:          0  iMISS:          0  dACCESS:          0  dHIT:          0  dMISS:          0  itACCESS:          0  itHIT:          0  itMISS:          0  dtACCESS:          0  dtHIT:          0  dtMISS:          0
cpu0_DTLB WRITE        ACCESS:          0  HIT:          0  MISS:          0  iACCESS:          0  iHIT:          0  iMISS:          0  dACCESS:          0  dHIT:          0  dMISS:          0  itACCESS:          0  itHIT:          0  itMISS:          0  dtACCESS:          0  dtHIT:          0  dtMISS:          0
cpu0_DTLB TRANSLATION  ACCESS:          0  HIT:          0  MISS:          0  iACCESS:          0  iHIT:          0  iMISS:          0  dACCESS:          0  dHIT:          0  dMISS:          0  itACCESS:          0  itHIT:          0  itMISS:          0  dtACCESS:          0  dtHIT:          0  dtMISS:          0
cpu0_DTLB PREFETCH  REQUESTED:          0  ISSUED:          0  CROSSED:          0  USEFUL:          0  USELESS:          0
cpu0_DTLB AVERAGE iMISS LATENCY: 0 cycles
cpu0_DTLB AVERAGE dMISS LATENCY: 8.93314 cycles
cpu0_DTLB AVERAGE itMISS LATENCY: 0 cycles
cpu0_DTLB AVERAGE dtMISS LATENCY: 0 cycles
cpu0_DTLB PAGE CROSSINGS (TLB HIT):         0 
cpu0_DTLB PAGE CROSSINGS (TLB MISS):         0 
cpu0_DTLB AVERAGE MISS LATENCY: 8.93314 cycles
cpu0_STLB TOTAL       ACCESS:    1627235  HIT:    1451874  MISS:     175361  iACCESS:     388676  iHIT:     326072  iMISS:      62604  dACCESS:    1238559  dHIT:    1125802  dMISS:     112757  itACCESS:          0  itHIT:          0  itMISS:          0  dtACCESS:          0  dtHIT:          0  dtMISS:          0
cpu0_STLB LOAD         ACCESS:    1627235  HIT:    1451874  MISS:     175361  iACCESS:     388676  iHIT:     326072  iMISS:      62604  dACCESS:    1238559  dHIT:    1125802  dMISS:     112757  itACCESS:          0  itHIT:          0  itMISS:          0  dtACCESS:          0  dtHIT:          0  dtMISS:          0
cpu0_STLB RFO          ACCESS:          0  HIT:          0  MISS:          0  iACCESS:          0  iHIT:          0  iMISS:          0  dACCESS:          0  dHIT:          0  dMISS:          0  itACCESS:          0  itHIT:          0  itMISS:          0  dtACCESS:          0  dtHIT:          0  dtMISS:          0
cpu0_STLB PREFETCH     ACCESS:          0  HIT:          0  MISS:          0  iACCESS:          0  iHIT:          0  iMISS:          0  dACCESS:          0  dHIT:          0  dMISS:          0  itACCESS:          0  itHIT:          0  itMISS:          0  dtACCESS:          0  dtHIT:          0  dtMISS:          0
cpu0_STLB WRITE        ACCESS:          0  HIT:          0  MISS:          0  iACCESS:          0  iHIT:          0  iMISS:          0  dACCESS:          0  dHIT:          0  dMISS:          0  itACCESS:          0  itHIT:          0  itMISS:          0  dtACCESS:          0  dtHIT:          0  dtMISS:          0
cpu0_STLB TRANSLATION  ACCESS:          0  HIT:          0  MISS:          0  iACCESS:          0  iHIT:          0  iMISS:          0  dACCESS:          0  dHIT:          0  dMISS:          0  itACCESS:          0  itHIT:          0  itMISS:          0  dtACCESS:          0  dtHIT:          0  dtMISS:          0
cpu0_STLB PREFETCH  REQUESTED:          0  ISSUED:          0  CROSSED:          0  USEFUL:          0  USELESS:          0
cpu0_STLB AVERAGE iMISS LATENCY: 14.9222 cycles
cpu0_STLB AVERAGE dMISS LATENCY: 49.952 cycles
cpu0_STLB AVERAGE itMISS LATENCY: 0 cycles
cpu0_STLB AVERAGE dtMISS LATENCY: 0 cycles
cpu0_STLB PAGE CROSSINGS (TLB HIT):         0 
cpu0_STLB PAGE CROSSINGS (TLB MISS):         0 
cpu0_STLB AVERAGE MISS LATENCY: 64.8741 cycles
cpu0_L1D TOTAL       ACCESS:   41518563  HIT:   38024485  MISS:    3494078  iACCESS:          0  iHIT:          0  iMISS:          0  dACCESS:   41280343  dHIT:   38003328  dMISS:    3277015  itACCESS:      68152  itHIT:       9733  itMISS:      58419  dtACCESS:     170068  dtHIT:      11424  dtMISS:     158644
cpu0_L1D LOAD         ACCESS:   18913320  HIT:   17427473  MISS:    1485847  iACCESS:          0  iHIT:          0  iMISS:          0  dACCESS:   18913320  dHIT:   17427473  dMISS:    1485847  itACCESS:          0  itHIT:          0  itMISS:          0  dtACCESS:          0  dtHIT:          0  dtMISS:          0
cpu0_L1D RFO          ACCESS:          0  HIT:          0  MISS:          0  iACCESS:          0  iHIT:          0  iMISS:          0  dACCESS:          0  dHIT:          0  dMISS:          0  itACCESS:          0  itHIT:          0  itMISS:          0  dtACCESS:          0  dtHIT:          0  dtMISS:          0
cpu0_L1D PREFETCH     ACCESS:   12176861  HIT:   10824209  MISS:    1352652  iACCESS:          0  iHIT:          0  iMISS:          0  dACCESS:   12176861  dHIT:   10824209  dMISS:    1352652  itACCESS:          0  itHIT:          0  itMISS:          0  dtACCESS:          0  dtHIT:          0  dtMISS:          0
cpu0_L1D WRITE        ACCESS:   10190162  HIT:    9751646  MISS:     438516  iACCESS:          0  iHIT:          0  iMISS:          0  dACCESS:   10190162  dHIT:    9751646  dMISS:     438516  itACCESS:          0  itHIT:          0  itMISS:          0  dtACCESS:          0  dtHIT:          0  dtMISS:          0
cpu0_L1D TRANSLATION  ACCESS:     238220  HIT:      21157  MISS:     217063  iACCESS:          0  iHIT:          0  iMISS:          0  dACCESS:          0  dHIT:          0  dMISS:          0  itACCESS:      68152  itHIT:       9733  itMISS:      58419  dtACCESS:     170068  dtHIT:      11424  dtMISS:     158644
cpu0_L1D PREFETCH  REQUESTED:   18913320  ISSUED:   17034904  CROSSED:          0  USEFUL:     307176  USELESS:     698005
cpu0_L1D AVERAGE iMISS LATENCY: 0 cycles
cpu0_L1D AVERAGE dMISS LATENCY: 35.3488 cycles
cpu0_L1D AVERAGE itMISS LATENCY: 0.593891 cycles
cpu0_L1D AVERAGE dtMISS LATENCY: 1.78199 cycles
cpu0_L1D PAGE CROSSINGS (TLB HIT):         0 
cpu0_L1D PAGE CROSSINGS (TLB MISS):         0 
cpu0_L1D AVERAGE MISS LATENCY: 37.7247 cycles
cpu0_L2C TOTAL       ACCESS:    6941386  HIT:    1205148  MISS:    5736238  iACCESS:    3281450  iHIT:     670532  iMISS:    2610918  dACCESS:    3451528  dHIT:     375476  dMISS:    3076052  itACCESS:      58419  itHIT:      43997  itMISS:      14422  dtACCESS:     149989  dtHIT:     115143  dtMISS:      34846
cpu0_L2C LOAD         ACCESS:    1712916  HIT:     132227  MISS:    1580689  iACCESS:     787720  iHIT:      94995  iMISS:     692725  dACCESS:     925196  dHIT:      37232  dMISS:     887964  itACCESS:          0  itHIT:          0  itMISS:          0  dtACCESS:          0  dtHIT:          0  dtMISS:          0
cpu0_L2C RFO          ACCESS:     157538  HIT:       7868  MISS:     149670  iACCESS:          0  iHIT:          0  iMISS:          0  dACCESS:     157538  dHIT:       7868  dMISS:     149670  itACCESS:          0  itHIT:          0  itMISS:          0  dtACCESS:          0  dtHIT:          0  dtMISS:          0
cpu0_L2C PREFETCH     ACCESS:    4578446  HIT:     846371  MISS:    3732075  iACCESS:    2493730  iHIT:     575537  iMISS:    1918193  dACCESS:    2084716  dHIT:     270834  dMISS:    1813882  itACCESS:          0  itHIT:          0  itMISS:          0  dtACCESS:          0  dtHIT:          0  dtMISS:          0
cpu0_L2C WRITE        ACCESS:     284078  HIT:      59542  MISS:     224536  iACCESS:          0  iHIT:          0  iMISS:          0  dACCESS:     284078  dHIT:      59542  dMISS:     224536  itACCESS:          0  itHIT:          0  itMISS:          0  dtACCESS:          0  dtHIT:          0  dtMISS:          0
cpu0_L2C TRANSLATION  ACCESS:     208408  HIT:     159140  MISS:      49268  iACCESS:          0  iHIT:          0  iMISS:          0  dACCESS:          0  dHIT:          0  dMISS:          0  itACCESS:      58419  itHIT:      43997  itMISS:      14422  dtACCESS:     149989  dtHIT:     115143  dtMISS:      34846
cpu0_L2C PREFETCH  REQUESTED:    1328366  ISSUED:    1328366  CROSSED:          0  USEFUL:     410016  USELESS:     378772
cpu0_L2C AVERAGE iMISS LATENCY: 15.3037 cycles
cpu0_L2C AVERAGE dMISS LATENCY: 24.7676 cycles
cpu0_L2C AVERAGE itMISS LATENCY: 0.267376 cycles
cpu0_L2C AVERAGE dtMISS LATENCY: 0.842718 cycles
cpu0_L2C PAGE CROSSINGS (TLB HIT):         0 
cpu0_L2C PAGE CROSSINGS (TLB MISS):         0 
cpu0_L2C AVERAGE MISS LATENCY: 41.1814 cycles
LLC TOTAL       ACCESS:    5659660  HIT:    4840216  MISS:     819444  iACCESS:    2556266  iHIT:    2302248  iMISS:     254018  dACCESS:    3054126  dHIT:    2519443  dMISS:     534683  itACCESS:      14422  itHIT:       7181  itMISS:       7241  dtACCESS:      34846  dtHIT:      11344  dtMISS:      23502
LLC LOAD         ACCESS:    1578680  HIT:    1385400  MISS:     193280  iACCESS:     691182  iHIT:     635693  iMISS:      55489  dACCESS:     887498  dHIT:     749707  dMISS:     137791  itACCESS:          0  itHIT:          0  itMISS:          0  dtACCESS:          0  dtHIT:          0  dtMISS:          0
LLC RFO          ACCESS:     149661  HIT:     109238  MISS:      40423  iACCESS:          0  iHIT:          0  iMISS:          0  dACCESS:     149661  dHIT:     109238  dMISS:      40423  itACCESS:          0  itHIT:          0  itMISS:          0  dtACCESS:          0  dtHIT:          0  dtMISS:          0
LLC PREFETCH     ACCESS:    3623143  HIT:    3068145  MISS:     554998  iACCESS:    1865084  iHIT:    1666555  iMISS:     198529  dACCESS:    1758059  dHIT:    1401590  dMISS:     356469  itACCESS:          0  itHIT:          0  itMISS:          0  dtACCESS:          0  dtHIT:          0  dtMISS:          0
LLC WRITE        ACCESS:     258908  HIT:     258908  MISS:          0  iACCESS:          0  iHIT:          0  iMISS:          0  dACCESS:     258908  dHIT:     258908  dMISS:          0  itACCESS:          0  itHIT:          0  itMISS:          0  dtACCESS:          0  dtHIT:          0  dtMISS:          0
LLC TRANSLATION  ACCESS:      49268  HIT:      18525  MISS:      30743  iACCESS:          0  iHIT:          0  iMISS:          0  dACCESS:          0  dHIT:          0  dMISS:          0  itACCESS:      14422  itHIT:       7181  itMISS:       7241  dtACCESS:      34846  dtHIT:      11344  dtMISS:      23502
LLC PREFETCH  REQUESTED:          0  ISSUED:          0  CROSSED:          0  USEFUL:          0  USELESS:          0
LLC AVERAGE iMISS LATENCY: 46.9071 cycles
LLC AVERAGE dMISS LATENCY: 107.663 cycles
LLC AVERAGE itMISS LATENCY: 1.52878 cycles
LLC AVERAGE dtMISS LATENCY: 5.06486 cycles
LLC PAGE CROSSINGS (TLB HIT):         0 
LLC PAGE CROSSINGS (TLB MISS):         0 
LLC AVERAGE MISS LATENCY: 161.163 cycles

PageTableWalker TOTAL       ACCESS:      86890  
PageTableWalker AVERAGE LATENCY: 4.22324 cycles
PageTableWalker TOTAL LATENCY: 366957 cycles

DRAM Statistics
Channel 0
 RQ ROW_BUFFER_HIT:     215232
  ROW_BUFFER_MISS:     604155
 AVG DBUS CONGESTED CYCLE:    3.63746
 WQ ROW_BUFFER_HIT:      21089
  ROW_BUFFER_MISS:      29604  FULL:          0

