last_page:0x200000000000000
VMEM_RES_CAP:0x100000
PAGE_SIZE:4096
LOG2_PAGE_SIZE:12
LOG2_PAGE_TABLE_SIZE:9
page_table_levels:5
WARNING: physical memory size is smaller than virtual memory size
FDiP enabled with aggresivity 16

*** ChampSim Multicore Out-of-Order Simulator ***

Warmup Instructions: 50000000
Simulation Instructions: 100000000
Number of CPUs: 1
Small page size: 4096
Large page size: 2097152

CPU 0 Bimodal branch predictor
Basic BTB sets: 1024 ways: 8 indirect buffer size: 4096 RAS size: 64
Instruction page size distrubution: 0
Loading instruction page size distribution from /home/bsc/bsc018186/scratch/itp_asplos25_AE/dump/srv638_ap.pdst
Data page size distrubution: 0
Loading data page size distribution from /home/bsc/bsc018186/scratch/itp_asplos25_AE/dump/srv638_ap.pdst
cpu0_L2C IP-based stride prefetcher
cpu0_L1D next line prefetcher
CHiRPing...
cpu0_L1I next line prefetcher
Off-chip DRAM Size: 4 GiB Channels: 1 Width: 64-bit Data Rate: 3200 MT/s
Heartbeat CPU 0 instructions: 10000003 cycles: 2500183 heartbeat IPC: 3.99971 cumulative IPC: 3.99971 (Simulation time: 0 hr 0 min 39 sec) 
Heartbeat CPU 0 instructions: 20000001 cycles: 5000214 heartbeat IPC: 3.99995 cumulative IPC: 3.99983 (Simulation time: 0 hr 1 min 20 sec) 
Heartbeat CPU 0 instructions: 30000002 cycles: 7500241 heartbeat IPC: 3.99996 cumulative IPC: 3.99988 (Simulation time: 0 hr 2 min 2 sec) 
Heartbeat CPU 0 instructions: 40000000 cycles: 10000289 heartbeat IPC: 3.99993 cumulative IPC: 3.99989 (Simulation time: 0 hr 2 min 44 sec) 
Heartbeat CPU 0 instructions: 50000000 cycles: 12500356 heartbeat IPC: 3.9999 cumulative IPC: 3.99989 (Simulation time: 0 hr 3 min 25 sec) 
Warmup finished CPU 0 instructions: 50000000 cycles: 12500357 cumulative IPC: 3.99989 (Simulation time: 0 hr 3 min 25 sec) 

Warmup complete CPU 0 instructions: 50000000 cycles: 12500357 (Simulation time: 0 hr 3 min 25 sec) 

Heartbeat CPU 0 instructions: 60000001 cycles: 26820003 heartbeat IPC: 0.698342 cumulative IPC: 0.698342 (Simulation time: 0 hr 4 min 30 sec) 
Heartbeat CPU 0 instructions: 70000002 cycles: 40828050 heartbeat IPC: 0.713876 cumulative IPC: 0.706023 (Simulation time: 0 hr 5 min 34 sec) 
Heartbeat CPU 0 instructions: 80000003 cycles: 54936597 heartbeat IPC: 0.708791 cumulative IPC: 0.706944 (Simulation time: 0 hr 6 min 39 sec) 
Heartbeat CPU 0 instructions: 90000000 cycles: 69121988 heartbeat IPC: 0.704951 cumulative IPC: 0.706444 (Simulation time: 0 hr 7 min 43 sec) 
Heartbeat CPU 0 instructions: 100000001 cycles: 83048848 heartbeat IPC: 0.718038 cumulative IPC: 0.708733 (Simulation time: 0 hr 8 min 47 sec) 
*** Reached end of trace: /gpfs/projects/bsc18/MN4/bsc18/romol/ChampSim/traces/qualcomm_srv/srv638_ap.champsimtrace.xz
Heartbeat CPU 0 instructions: 110000001 cycles: 97184212 heartbeat IPC: 0.707446 cumulative IPC: 0.708518 (Simulation time: 0 hr 9 min 52 sec) 
Heartbeat CPU 0 instructions: 120000002 cycles: 110878323 heartbeat IPC: 0.730241 cumulative IPC: 0.711542 (Simulation time: 0 hr 10 min 55 sec) 
Heartbeat CPU 0 instructions: 130000003 cycles: 124461240 heartbeat IPC: 0.736219 cumulative IPC: 0.714536 (Simulation time: 0 hr 11 min 59 sec) 
Heartbeat CPU 0 instructions: 140000000 cycles: 138253100 heartbeat IPC: 0.725066 cumulative IPC: 0.715691 (Simulation time: 0 hr 13 min 3 sec) 
Heartbeat CPU 0 instructions: 150000003 cycles: 152228391 heartbeat IPC: 0.715549 cumulative IPC: 0.715677 (Simulation time: 0 hr 14 min 7 sec) 
Simulation finished CPU 0 instructions: 100000003 cycles: 139728035 cumulative IPC: 0.715677 (Simulation time: 0 hr 14 min 7 sec) 

Simulation complete CPU 0 instructions: 100000003 cycles: 139728035 (Simulation time: 0 hr 14 min 7 sec) 


ChampSim completed all CPUs

Saving instructions large page distribution to /home/bsc/bsc018186/scratch/itp_asplos25_AE/dump/srv638_ap.pdst...
Saving data large page distribution to /home/bsc/bsc018186/scratch/itp_asplos25_AE/dump/srv638_ap.pdst...
=== Simulation ===
CPU 0 runs /gpfs/projects/bsc18/MN4/bsc18/romol/ChampSim/traces/qualcomm_srv/srv638_ap.champsimtrace.xz

Region of Interest Statistics

CPU 0 cumulative IPC: 0.715677 instructions: 100000003 cycles: 139728035
CPU 0 Branch Prediction Accuracy: 83.3065% MPKI: 29.9322 Average ROB Occupancy at Mispredict: 12.4203
Branch type MPKI
BRANCH_DIRECT_JUMP: 0.96882
BRANCH_INDIRECT: 15.5202
BRANCH_CONDITIONAL: 9.76945
BRANCH_DIRECT_CALL: 1.84419
BRANCH_INDIRECT_CALL: 0.48996
BRANCH_RETURN: 1.33965

Instructions large pages: 0
Instructions small pages: 867
Large page distribution for instructions: 0%

Data large pages: 0
Data small pages: 8669
Large page distribution for data: 0%

cpu0_L1I TOTAL       ACCESS:   34989209  HIT:   26582898  MISS:    8406311  iACCESS:   34989209  iHIT:   26582898  iMISS:    8406311  dACCESS:          0  dHIT:          0  dMISS:          0  itACCESS:          0  itHIT:          0  itMISS:          0  dtACCESS:          0  dtHIT:          0  dtMISS:          0
cpu0_L1I LOAD         ACCESS:   10205547  HIT:    7858394  MISS:    2347153  iACCESS:   10205547  iHIT:    7858394  iMISS:    2347153  dACCESS:          0  dHIT:          0  dMISS:          0  itACCESS:          0  itHIT:          0  itMISS:          0  dtACCESS:          0  dtHIT:          0  dtMISS:          0
cpu0_L1I RFO          ACCESS:          0  HIT:          0  MISS:          0  iACCESS:          0  iHIT:          0  iMISS:          0  dACCESS:          0  dHIT:          0  dMISS:          0  itACCESS:          0  itHIT:          0  itMISS:          0  dtACCESS:          0  dtHIT:          0  dtMISS:          0
cpu0_L1I PREFETCH     ACCESS:   24783662  HIT:   18724504  MISS:    6059158  iACCESS:   24783662  iHIT:   18724504  iMISS:    6059158  dACCESS:          0  dHIT:          0  dMISS:          0  itACCESS:          0  itHIT:          0  itMISS:          0  dtACCESS:          0  dtHIT:          0  dtMISS:          0
cpu0_L1I WRITE        ACCESS:          0  HIT:          0  MISS:          0  iACCESS:          0  iHIT:          0  iMISS:          0  dACCESS:          0  dHIT:          0  dMISS:          0  itACCESS:          0  itHIT:          0  itMISS:          0  dtACCESS:          0  dtHIT:          0  dtMISS:          0
cpu0_L1I TRANSLATION  ACCESS:          0  HIT:          0  MISS:          0  iACCESS:          0  iHIT:          0  iMISS:          0  dACCESS:          0  dHIT:          0  dMISS:          0  itACCESS:          0  itHIT:          0  itMISS:          0  dtACCESS:          0  dtHIT:          0  dtMISS:          0
cpu0_L1I PREFETCH  REQUESTED:   27081673  ISSUED:   27079785  CROSSED:          0  USEFUL:    1935886  USELESS:     632573
cpu0_L1I AVERAGE iMISS LATENCY: 13.1949 cycles
cpu0_L1I AVERAGE dMISS LATENCY: 0 cycles
cpu0_L1I AVERAGE itMISS LATENCY: 0 cycles
cpu0_L1I AVERAGE dtMISS LATENCY: 0 cycles
cpu0_L1I PAGE CROSSINGS (TLB HIT):         0 
cpu0_L1I PAGE CROSSINGS (TLB MISS):         0 
cpu0_L1I AVERAGE MISS LATENCY: 13.1949 cycles
cpu0_ITLB TOTAL       ACCESS:   29002846  HIT:   27015327  MISS:    1987519  iACCESS:   29002846  iHIT:   27015327  iMISS:    1987519  dACCESS:          0  dHIT:          0  dMISS:          0  itACCESS:          0  itHIT:          0  itMISS:          0  dtACCESS:          0  dtHIT:          0  dtMISS:          0
cpu0_ITLB LOAD         ACCESS:   29002846  HIT:   27015327  MISS:    1987519  iACCESS:   29002846  iHIT:   27015327  iMISS:    1987519  dACCESS:          0  dHIT:          0  dMISS:          0  itACCESS:          0  itHIT:          0  itMISS:          0  dtACCESS:          0  dtHIT:          0  dtMISS:          0
cpu0_ITLB RFO          ACCESS:          0  HIT:          0  MISS:          0  iACCESS:          0  iHIT:          0  iMISS:          0  dACCESS:          0  dHIT:          0  dMISS:          0  itACCESS:          0  itHIT:          0  itMISS:          0  dtACCESS:          0  dtHIT:          0  dtMISS:          0
cpu0_ITLB PREFETCH     ACCESS:          0  HIT:          0  MISS:          0  iACCESS:          0  iHIT:          0  iMISS:          0  dACCESS:          0  dHIT:          0  dMISS:          0  itACCESS:          0  itHIT:          0  itMISS:          0  dtACCESS:          0  dtHIT:          0  dtMISS:          0
cpu0_ITLB WRITE        ACCESS:          0  HIT:          0  MISS:          0  iACCESS:          0  iHIT:          0  iMISS:          0  dACCESS:          0  dHIT:          0  dMISS:          0  itACCESS:          0  itHIT:          0  itMISS:          0  dtACCESS:          0  dtHIT:          0  dtMISS:          0
cpu0_ITLB TRANSLATION  ACCESS:          0  HIT:          0  MISS:          0  iACCESS:          0  iHIT:          0  iMISS:          0  dACCESS:          0  dHIT:          0  dMISS:          0  itACCESS:          0  itHIT:          0  itMISS:          0  dtACCESS:          0  dtHIT:          0  dtMISS:          0
cpu0_ITLB PREFETCH  REQUESTED:          0  ISSUED:          0  CROSSED:          0  USEFUL:     325114  USELESS:      62287
cpu0_ITLB AVERAGE iMISS LATENCY: 2.9076 cycles
cpu0_ITLB AVERAGE dMISS LATENCY: 0 cycles
cpu0_ITLB AVERAGE itMISS LATENCY: 0 cycles
cpu0_ITLB AVERAGE dtMISS LATENCY: 0 cycles
cpu0_ITLB PAGE CROSSINGS (TLB HIT):         0 
cpu0_ITLB PAGE CROSSINGS (TLB MISS):         0 
cpu0_ITLB AVERAGE MISS LATENCY: 2.9076 cycles
cpu0_DTLB TOTAL       ACCESS:   27699092  HIT:   25660935  MISS:    2038157  iACCESS:          0  iHIT:          0  iMISS:          0  dACCESS:   27699092  dHIT:   25660935  dMISS:    2038157  itACCESS:          0  itHIT:          0  itMISS:          0  dtACCESS:          0  dtHIT:          0  dtMISS:          0
cpu0_DTLB LOAD         ACCESS:   27699092  HIT:   25660935  MISS:    2038157  iACCESS:          0  iHIT:          0  iMISS:          0  dACCESS:   27699092  dHIT:   25660935  dMISS:    2038157  itACCESS:          0  itHIT:          0  itMISS:          0  dtACCESS:          0  dtHIT:          0  dtMISS:          0
cpu0_DTLB RFO          ACCESS:          0  HIT:          0  MISS:          0  iACCESS:          0  iHIT:          0  iMISS:          0  dACCESS:          0  dHIT:          0  dMISS:          0  itACCESS:          0  itHIT:          0  itMISS:          0  dtACCESS:          0  dtHIT:          0  dtMISS:          0
cpu0_DTLB PREFETCH     ACCESS:          0  HIT:          0  MISS:          0  iACCESS:          0  iHIT:          0  iMISS:          0  dACCESS:          0  dHIT:          0  dMISS:          0  itACCESS:          0  itHIT:          0  itMISS:          0  dtACCESS:          0  dtHIT:          0  dtMISS:          0
cpu0_DTLB WRITE        ACCESS:          0  HIT:          0  MISS:          0  iACCESS:          0  iHIT:          0  iMISS:          0  dACCESS:          0  dHIT:          0  dMISS:          0  itACCESS:          0  itHIT:          0  itMISS:          0  dtACCESS:          0  dtHIT:          0  dtMISS:          0
cpu0_DTLB TRANSLATION  ACCESS:          0  HIT:          0  MISS:          0  iACCESS:          0  iHIT:          0  iMISS:          0  dACCESS:          0  dHIT:          0  dMISS:          0  itACCESS:          0  itHIT:          0  itMISS:          0  dtACCESS:          0  dtHIT:          0  dtMISS:          0
cpu0_DTLB PREFETCH  REQUESTED:          0  ISSUED:          0  CROSSED:          0  USEFUL:          0  USELESS:          0
cpu0_DTLB AVERAGE iMISS LATENCY: 0 cycles
cpu0_DTLB AVERAGE dMISS LATENCY: 10.2103 cycles
cpu0_DTLB AVERAGE itMISS LATENCY: 0 cycles
cpu0_DTLB AVERAGE dtMISS LATENCY: 0 cycles
cpu0_DTLB PAGE CROSSINGS (TLB HIT):         0 
cpu0_DTLB PAGE CROSSINGS (TLB MISS):         0 
cpu0_DTLB AVERAGE MISS LATENCY: 10.2103 cycles
cpu0_STLB TOTAL       ACCESS:    1639732  HIT:    1477615  MISS:     162117  iACCESS:     387417  iHIT:     330996  iMISS:      56421  dACCESS:    1252315  dHIT:    1146619  dMISS:     105696  itACCESS:          0  itHIT:          0  itMISS:          0  dtACCESS:          0  dtHIT:          0  dtMISS:          0
cpu0_STLB LOAD         ACCESS:    1639732  HIT:    1477615  MISS:     162117  iACCESS:     387417  iHIT:     330996  iMISS:      56421  dACCESS:    1252315  dHIT:    1146619  dMISS:     105696  itACCESS:          0  itHIT:          0  itMISS:          0  dtACCESS:          0  dtHIT:          0  dtMISS:          0
cpu0_STLB RFO          ACCESS:          0  HIT:          0  MISS:          0  iACCESS:          0  iHIT:          0  iMISS:          0  dACCESS:          0  dHIT:          0  dMISS:          0  itACCESS:          0  itHIT:          0  itMISS:          0  dtACCESS:          0  dtHIT:          0  dtMISS:          0
cpu0_STLB PREFETCH     ACCESS:          0  HIT:          0  MISS:          0  iACCESS:          0  iHIT:          0  iMISS:          0  dACCESS:          0  dHIT:          0  dMISS:          0  itACCESS:          0  itHIT:          0  itMISS:          0  dtACCESS:          0  dtHIT:          0  dtMISS:          0
cpu0_STLB WRITE        ACCESS:          0  HIT:          0  MISS:          0  iACCESS:          0  iHIT:          0  iMISS:          0  dACCESS:          0  dHIT:          0  dMISS:          0  itACCESS:          0  itHIT:          0  itMISS:          0  dtACCESS:          0  dtHIT:          0  dtMISS:          0
cpu0_STLB TRANSLATION  ACCESS:          0  HIT:          0  MISS:          0  iACCESS:          0  iHIT:          0  iMISS:          0  dACCESS:          0  dHIT:          0  dMISS:          0  itACCESS:          0  itHIT:          0  itMISS:          0  dtACCESS:          0  dtHIT:          0  dtMISS:          0
cpu0_STLB PREFETCH  REQUESTED:          0  ISSUED:          0  CROSSED:          0  USEFUL:          0  USELESS:          0
cpu0_STLB AVERAGE iMISS LATENCY: 16.7901 cycles
cpu0_STLB AVERAGE dMISS LATENCY: 66.8431 cycles
cpu0_STLB AVERAGE itMISS LATENCY: 0 cycles
cpu0_STLB AVERAGE dtMISS LATENCY: 0 cycles
cpu0_STLB PAGE CROSSINGS (TLB HIT):         0 
cpu0_STLB PAGE CROSSINGS (TLB MISS):         0 
cpu0_STLB AVERAGE MISS LATENCY: 83.6331 cycles
cpu0_L1D TOTAL       ACCESS:   41413703  HIT:   37898909  MISS:    3514794  iACCESS:          0  iHIT:          0  iMISS:          0  dACCESS:   41190820  dHIT:   37879771  dMISS:    3311049  itACCESS:      61201  itHIT:       9011  itMISS:      52190  dtACCESS:     161682  dtHIT:      10127  dtMISS:     151555
cpu0_L1D LOAD         ACCESS:   18934450  HIT:   17415218  MISS:    1519232  iACCESS:          0  iHIT:          0  iMISS:          0  dACCESS:   18934450  dHIT:   17415218  dMISS:    1519232  itACCESS:          0  itHIT:          0  itMISS:          0  dtACCESS:          0  dtHIT:          0  dtMISS:          0
cpu0_L1D RFO          ACCESS:          0  HIT:          0  MISS:          0  iACCESS:          0  iHIT:          0  iMISS:          0  dACCESS:          0  dHIT:          0  dMISS:          0  itACCESS:          0  itHIT:          0  itMISS:          0  dtACCESS:          0  dtHIT:          0  dtMISS:          0
cpu0_L1D PREFETCH     ACCESS:   12146556  HIT:   10780660  MISS:    1365896  iACCESS:          0  iHIT:          0  iMISS:          0  dACCESS:   12146556  dHIT:   10780660  dMISS:    1365896  itACCESS:          0  itHIT:          0  itMISS:          0  dtACCESS:          0  dtHIT:          0  dtMISS:          0
cpu0_L1D WRITE        ACCESS:   10109814  HIT:    9683893  MISS:     425921  iACCESS:          0  iHIT:          0  iMISS:          0  dACCESS:   10109814  dHIT:    9683893  dMISS:     425921  itACCESS:          0  itHIT:          0  itMISS:          0  dtACCESS:          0  dtHIT:          0  dtMISS:          0
cpu0_L1D TRANSLATION  ACCESS:     222883  HIT:      19138  MISS:     203745  iACCESS:          0  iHIT:          0  iMISS:          0  dACCESS:          0  dHIT:          0  dMISS:          0  itACCESS:      61201  itHIT:       9011  itMISS:      52190  dtACCESS:     161682  dtHIT:      10127  dtMISS:     151555
cpu0_L1D PREFETCH  REQUESTED:   18934450  ISSUED:   16952059  CROSSED:          0  USEFUL:     310371  USELESS:     706586
cpu0_L1D AVERAGE iMISS LATENCY: 0 cycles
cpu0_L1D AVERAGE dMISS LATENCY: 32.1867 cycles
cpu0_L1D AVERAGE itMISS LATENCY: 0.63441 cycles
cpu0_L1D AVERAGE dtMISS LATENCY: 2.45289 cycles
cpu0_L1D PAGE CROSSINGS (TLB HIT):         0 
cpu0_L1D PAGE CROSSINGS (TLB MISS):         0 
cpu0_L1D AVERAGE MISS LATENCY: 35.274 cycles
cpu0_L2C TOTAL       ACCESS:    7024874  HIT:    1720860  MISS:    5304014  iACCESS:    3317367  iHIT:     867383  iMISS:    2449984  dACCESS:    3515357  dHIT:     737544  dMISS:    2777813  itACCESS:      52190  itHIT:      38710  itMISS:      13480  dtACCESS:     139960  dtHIT:      77223  dtMISS:      62737
cpu0_L2C LOAD         ACCESS:    1728783  HIT:     311536  MISS:    1417247  iACCESS:     788936  iHIT:     149781  iMISS:     639155  dACCESS:     939847  dHIT:     161755  dMISS:     778092  itACCESS:          0  itHIT:          0  itMISS:          0  dtACCESS:          0  dtHIT:          0  dtMISS:          0
cpu0_L2C RFO          ACCESS:     156636  HIT:      54765  MISS:     101871  iACCESS:          0  iHIT:          0  iMISS:          0  dACCESS:     156636  dHIT:      54765  dMISS:     101871  itACCESS:          0  itHIT:          0  itMISS:          0  dtACCESS:          0  dtHIT:          0  dtMISS:          0
cpu0_L2C PREFETCH     ACCESS:    4661098  HIT:    1091911  MISS:    3569187  iACCESS:    2528431  iHIT:     717602  iMISS:    1810829  dACCESS:    2132667  dHIT:     374309  dMISS:    1758358  itACCESS:          0  itHIT:          0  itMISS:          0  dtACCESS:          0  dtHIT:          0  dtMISS:          0
cpu0_L2C WRITE        ACCESS:     286207  HIT:     146715  MISS:     139492  iACCESS:          0  iHIT:          0  iMISS:          0  dACCESS:     286207  dHIT:     146715  dMISS:     139492  itACCESS:          0  itHIT:          0  itMISS:          0  dtACCESS:          0  dtHIT:          0  dtMISS:          0
cpu0_L2C TRANSLATION  ACCESS:     192150  HIT:     115933  MISS:      76217  iACCESS:          0  iHIT:          0  iMISS:          0  dACCESS:          0  dHIT:          0  dMISS:          0  itACCESS:      52190  itHIT:      38710  itMISS:      13480  dtACCESS:     139960  dtHIT:      77223  dtMISS:      62737
cpu0_L2C PREFETCH  REQUESTED:    1400843  ISSUED:    1400843  CROSSED:          0  USEFUL:     402683  USELESS:     384029
cpu0_L2C AVERAGE iMISS LATENCY: 15.1024 cycles
cpu0_L2C AVERAGE dMISS LATENCY: 24.607 cycles
cpu0_L2C AVERAGE itMISS LATENCY: 0.329116 cycles
cpu0_L2C AVERAGE dtMISS LATENCY: 1.3746 cycles
cpu0_L2C PAGE CROSSINGS (TLB HIT):         0 
cpu0_L2C PAGE CROSSINGS (TLB MISS):         0 
cpu0_L2C AVERAGE MISS LATENCY: 41.4131 cycles
LLC TOTAL       ACCESS:    5186861  HIT:    4406212  MISS:     780649  iACCESS:    2394517  iHIT:    2161118  iMISS:     233399  dACCESS:    2716127  dHIT:    2211024  dMISS:     505103  itACCESS:      13480  itHIT:       4874  itMISS:       8606  dtACCESS:      62737  dtHIT:      29196  dtMISS:      33541
LLC LOAD         ACCESS:    1415545  HIT:    1241680  MISS:     173865  iACCESS:     637736  iHIT:     586560  iMISS:      51176  dACCESS:     777809  dHIT:     655120  dMISS:     122689  itACCESS:          0  itHIT:          0  itMISS:          0  dtACCESS:          0  dtHIT:          0  dtMISS:          0
LLC RFO          ACCESS:     101870  HIT:      71088  MISS:      30782  iACCESS:          0  iHIT:          0  iMISS:          0  dACCESS:     101870  dHIT:      71088  dMISS:      30782  itACCESS:          0  itHIT:          0  itMISS:          0  dtACCESS:          0  dtHIT:          0  dtMISS:          0
LLC PREFETCH     ACCESS:    3464493  HIT:    2939074  MISS:     525419  iACCESS:    1756781  iHIT:    1574558  iMISS:     182223  dACCESS:    1707712  dHIT:    1364516  dMISS:     343196  itACCESS:          0  itHIT:          0  itMISS:          0  dtACCESS:          0  dtHIT:          0  dtMISS:          0
LLC WRITE        ACCESS:     128736  HIT:     120300  MISS:       8436  iACCESS:          0  iHIT:          0  iMISS:          0  dACCESS:     128736  dHIT:     120300  dMISS:       8436  itACCESS:          0  itHIT:          0  itMISS:          0  dtACCESS:          0  dtHIT:          0  dtMISS:          0
LLC TRANSLATION  ACCESS:      76217  HIT:      34070  MISS:      42147  iACCESS:          0  iHIT:          0  iMISS:          0  dACCESS:          0  dHIT:          0  dMISS:          0  itACCESS:      13480  itHIT:       4874  itMISS:       8606  dtACCESS:      62737  dtHIT:      29196  dtMISS:      33541
LLC PREFETCH  REQUESTED:          0  ISSUED:          0  CROSSED:          0  USEFUL:          0  USELESS:          0
LLC AVERAGE iMISS LATENCY: 43.4245 cycles
LLC AVERAGE dMISS LATENCY: 103.105 cycles
LLC AVERAGE itMISS LATENCY: 1.89765 cycles
LLC AVERAGE dtMISS LATENCY: 7.77157 cycles
LLC PAGE CROSSINGS (TLB HIT):         0 
LLC PAGE CROSSINGS (TLB MISS):         0 
LLC AVERAGE MISS LATENCY: 156.199 cycles

PageTableWalker TOTAL       ACCESS:      81366  
PageTableWalker AVERAGE LATENCY: 4.43768 cycles
PageTableWalker TOTAL LATENCY: 361076 cycles

DRAM Statistics
Channel 0
 RQ ROW_BUFFER_HIT:     211024
  ROW_BUFFER_MISS:     561179
 AVG DBUS CONGESTED CYCLE:    3.62331
 WQ ROW_BUFFER_HIT:      14256
  ROW_BUFFER_MISS:      20040  FULL:          0

