last_page:0x200000000000000
VMEM_RES_CAP:0x100000
PAGE_SIZE:4096
LOG2_PAGE_SIZE:12
LOG2_PAGE_TABLE_SIZE:9
page_table_levels:5
WARNING: physical memory size is smaller than virtual memory size
FDiP enabled with aggresivity 16

*** ChampSim Multicore Out-of-Order Simulator ***

Warmup Instructions: 50000000
Simulation Instructions: 100000000
Number of CPUs: 1
Small page size: 4096
Large page size: 2097152

CPU 0 Bimodal branch predictor
Basic BTB sets: 1024 ways: 8 indirect buffer size: 4096 RAS size: 64
Instruction page size distrubution: 0
Loading instruction page size distribution from /home/bsc/bsc018186/scratch/itp_asplos25_AE/dump/srv609_ap.pdst
Data page size distrubution: 0
Loading data page size distribution from /home/bsc/bsc018186/scratch/itp_asplos25_AE/dump/srv609_ap.pdst
cpu0_L2C IP-based stride prefetcher
cpu0_L2C is using PTP replacement policy:
	TLB_STRESS_THRESHOLD:0
	PTE_EVICTION_RATIO:0
cpu0_L1D next line prefetcher
cpu0_STLB using iTP with max lru@8
cpu0_STLB using iTP with instr@0 and data@2
Init sat counter with 3 bits (max:50).
cpu0_L1I next line prefetcher
Off-chip DRAM Size: 4 GiB Channels: 1 Width: 64-bit Data Rate: 3200 MT/s
Heartbeat CPU 0 instructions: 10000003 cycles: 2500238 heartbeat IPC: 3.99963 cumulative IPC: 3.99963 (Simulation time: 0 hr 0 min 38 sec) 
Heartbeat CPU 0 instructions: 20000001 cycles: 5000299 heartbeat IPC: 3.99991 cumulative IPC: 3.99977 (Simulation time: 0 hr 1 min 19 sec) 
Heartbeat CPU 0 instructions: 30000002 cycles: 7500438 heartbeat IPC: 3.99978 cumulative IPC: 3.99977 (Simulation time: 0 hr 1 min 59 sec) 
Heartbeat CPU 0 instructions: 40000000 cycles: 10002152 heartbeat IPC: 3.99726 cumulative IPC: 3.99914 (Simulation time: 0 hr 2 min 38 sec) 
Heartbeat CPU 0 instructions: 50000003 cycles: 12502153 heartbeat IPC: 4 cumulative IPC: 3.99932 (Simulation time: 0 hr 3 min 18 sec) 
Warmup finished CPU 0 instructions: 50000003 cycles: 12502154 cumulative IPC: 3.99932 (Simulation time: 0 hr 3 min 18 sec) 

Warmup complete CPU 0 instructions: 50000003 cycles: 12502154 (Simulation time: 0 hr 3 min 18 sec) 

Heartbeat CPU 0 instructions: 60000000 cycles: 26949861 heartbeat IPC: 0.692152 cumulative IPC: 0.692152 (Simulation time: 0 hr 4 min 21 sec) 
Heartbeat CPU 0 instructions: 70000002 cycles: 41157917 heartbeat IPC: 0.703827 cumulative IPC: 0.69794 (Simulation time: 0 hr 5 min 29 sec) 
Heartbeat CPU 0 instructions: 80000001 cycles: 55363949 heartbeat IPC: 0.703927 cumulative IPC: 0.699924 (Simulation time: 0 hr 6 min 37 sec) 
Heartbeat CPU 0 instructions: 90000001 cycles: 70695055 heartbeat IPC: 0.652269 cumulative IPC: 0.68737 (Simulation time: 0 hr 7 min 47 sec) 
Heartbeat CPU 0 instructions: 100000004 cycles: 85265808 heartbeat IPC: 0.686307 cumulative IPC: 0.687157 (Simulation time: 0 hr 8 min 56 sec) 
*** Reached end of trace: /gpfs/projects/bsc18/MN4/bsc18/romol/ChampSim/traces/qualcomm_srv/srv609_ap.champsimtrace.xz
Heartbeat CPU 0 instructions: 110000002 cycles: 100177972 heartbeat IPC: 0.670594 cumulative IPC: 0.68434 (Simulation time: 0 hr 10 min 5 sec) 
Heartbeat CPU 0 instructions: 120000002 cycles: 114632073 heartbeat IPC: 0.691846 cumulative IPC: 0.685402 (Simulation time: 0 hr 11 min 14 sec) 
Heartbeat CPU 0 instructions: 130000000 cycles: 129705889 heartbeat IPC: 0.663402 cumulative IPC: 0.682573 (Simulation time: 0 hr 12 min 18 sec) 
Heartbeat CPU 0 instructions: 140000001 cycles: 145037134 heartbeat IPC: 0.652263 cumulative IPC: 0.679066 (Simulation time: 0 hr 13 min 25 sec) 
Heartbeat CPU 0 instructions: 150000000 cycles: 158820252 heartbeat IPC: 0.725526 cumulative IPC: 0.683443 (Simulation time: 0 hr 14 min 31 sec) 
Simulation finished CPU 0 instructions: 100000002 cycles: 146318100 cumulative IPC: 0.683443 (Simulation time: 0 hr 14 min 31 sec) 

Simulation complete CPU 0 instructions: 100000002 cycles: 146318100 (Simulation time: 0 hr 14 min 31 sec) 


ChampSim completed all CPUs

Saving instructions large page distribution to /home/bsc/bsc018186/scratch/itp_asplos25_AE/dump/srv609_ap.pdst...
Saving data large page distribution to /home/bsc/bsc018186/scratch/itp_asplos25_AE/dump/srv609_ap.pdst...
=== Simulation ===
CPU 0 runs /gpfs/projects/bsc18/MN4/bsc18/romol/ChampSim/traces/qualcomm_srv/srv609_ap.champsimtrace.xz

Region of Interest Statistics

CPU 0 cumulative IPC: 0.683443 instructions: 100000002 cycles: 146318100
CPU 0 Branch Prediction Accuracy: 82.7981% MPKI: 30.7994 Average ROB Occupancy at Mispredict: 12.1557
Branch type MPKI
BRANCH_DIRECT_JUMP: 1.05946
BRANCH_INDIRECT: 15.699
BRANCH_CONDITIONAL: 10.2378
BRANCH_DIRECT_CALL: 1.91021
BRANCH_INDIRECT_CALL: 0.5206
BRANCH_RETURN: 1.37238

Instructions large pages: 0
Instructions small pages: 1039
Large page distribution for instructions: 0%

Data large pages: 0
Data small pages: 9598
Large page distribution for data: 0%

cpu0_L1I TOTAL       ACCESS:   35591845  HIT:   27056264  MISS:    8535581  iACCESS:   35591845  iHIT:   27056264  iMISS:    8535581  dACCESS:          0  dHIT:          0  dMISS:          0  itACCESS:          0  itHIT:          0  itMISS:          0  dtACCESS:          0  dtHIT:          0  dtMISS:          0
cpu0_L1I LOAD         ACCESS:   10403986  HIT:    8022492  MISS:    2381494  iACCESS:   10403986  iHIT:    8022492  iMISS:    2381494  dACCESS:          0  dHIT:          0  dMISS:          0  itACCESS:          0  itHIT:          0  itMISS:          0  dtACCESS:          0  dtHIT:          0  dtMISS:          0
cpu0_L1I RFO          ACCESS:          0  HIT:          0  MISS:          0  iACCESS:          0  iHIT:          0  iMISS:          0  dACCESS:          0  dHIT:          0  dMISS:          0  itACCESS:          0  itHIT:          0  itMISS:          0  dtACCESS:          0  dtHIT:          0  dtMISS:          0
cpu0_L1I PREFETCH     ACCESS:   25187859  HIT:   19033772  MISS:    6154087  iACCESS:   25187859  iHIT:   19033772  iMISS:    6154087  dACCESS:          0  dHIT:          0  dMISS:          0  itACCESS:          0  itHIT:          0  itMISS:          0  dtACCESS:          0  dtHIT:          0  dtMISS:          0
cpu0_L1I WRITE        ACCESS:          0  HIT:          0  MISS:          0  iACCESS:          0  iHIT:          0  iMISS:          0  dACCESS:          0  dHIT:          0  dMISS:          0  itACCESS:          0  itHIT:          0  itMISS:          0  dtACCESS:          0  dtHIT:          0  dtMISS:          0
cpu0_L1I TRANSLATION  ACCESS:          0  HIT:          0  MISS:          0  iACCESS:          0  iHIT:          0  iMISS:          0  dACCESS:          0  dHIT:          0  dMISS:          0  itACCESS:          0  itHIT:          0  itMISS:          0  dtACCESS:          0  dtHIT:          0  dtMISS:          0
cpu0_L1I PREFETCH  REQUESTED:   27438190  ISSUED:   27434665  CROSSED:          0  USEFUL:    1947368  USELESS:     630800
cpu0_L1I AVERAGE iMISS LATENCY: 14.2406 cycles
cpu0_L1I AVERAGE dMISS LATENCY: 0 cycles
cpu0_L1I AVERAGE itMISS LATENCY: 0 cycles
cpu0_L1I AVERAGE dtMISS LATENCY: 0 cycles
cpu0_L1I PAGE CROSSINGS (TLB HIT):         0 
cpu0_L1I PAGE CROSSINGS (TLB MISS):         0 
cpu0_L1I AVERAGE MISS LATENCY: 14.2406 cycles
cpu0_ITLB TOTAL       ACCESS:   29411513  HIT:   27484069  MISS:    1927444  iACCESS:   29411513  iHIT:   27484069  iMISS:    1927444  dACCESS:          0  dHIT:          0  dMISS:          0  itACCESS:          0  itHIT:          0  itMISS:          0  dtACCESS:          0  dtHIT:          0  dtMISS:          0
cpu0_ITLB LOAD         ACCESS:   29411513  HIT:   27484069  MISS:    1927444  iACCESS:   29411513  iHIT:   27484069  iMISS:    1927444  dACCESS:          0  dHIT:          0  dMISS:          0  itACCESS:          0  itHIT:          0  itMISS:          0  dtACCESS:          0  dtHIT:          0  dtMISS:          0
cpu0_ITLB RFO          ACCESS:          0  HIT:          0  MISS:          0  iACCESS:          0  iHIT:          0  iMISS:          0  dACCESS:          0  dHIT:          0  dMISS:          0  itACCESS:          0  itHIT:          0  itMISS:          0  dtACCESS:          0  dtHIT:          0  dtMISS:          0
cpu0_ITLB PREFETCH     ACCESS:          0  HIT:          0  MISS:          0  iACCESS:          0  iHIT:          0  iMISS:          0  dACCESS:          0  dHIT:          0  dMISS:          0  itACCESS:          0  itHIT:          0  itMISS:          0  dtACCESS:          0  dtHIT:          0  dtMISS:          0
cpu0_ITLB WRITE        ACCESS:          0  HIT:          0  MISS:          0  iACCESS:          0  iHIT:          0  iMISS:          0  dACCESS:          0  dHIT:          0  dMISS:          0  itACCESS:          0  itHIT:          0  itMISS:          0  dtACCESS:          0  dtHIT:          0  dtMISS:          0
cpu0_ITLB TRANSLATION  ACCESS:          0  HIT:          0  MISS:          0  iACCESS:          0  iHIT:          0  iMISS:          0  dACCESS:          0  dHIT:          0  dMISS:          0  itACCESS:          0  itHIT:          0  itMISS:          0  dtACCESS:          0  dtHIT:          0  dtMISS:          0
cpu0_ITLB PREFETCH  REQUESTED:          0  ISSUED:          0  CROSSED:          0  USEFUL:     317987  USELESS:      63693
cpu0_ITLB AVERAGE iMISS LATENCY: 2.02639 cycles
cpu0_ITLB AVERAGE dMISS LATENCY: 0 cycles
cpu0_ITLB AVERAGE itMISS LATENCY: 0 cycles
cpu0_ITLB AVERAGE dtMISS LATENCY: 0 cycles
cpu0_ITLB PAGE CROSSINGS (TLB HIT):         0 
cpu0_ITLB PAGE CROSSINGS (TLB MISS):         0 
cpu0_ITLB AVERAGE MISS LATENCY: 2.02639 cycles
cpu0_DTLB TOTAL       ACCESS:   27765514  HIT:   25737846  MISS:    2027668  iACCESS:          0  iHIT:          0  iMISS:          0  dACCESS:   27765514  dHIT:   25737846  dMISS:    2027668  itACCESS:          0  itHIT:          0  itMISS:          0  dtACCESS:          0  dtHIT:          0  dtMISS:          0
cpu0_DTLB LOAD         ACCESS:   27765514  HIT:   25737846  MISS:    2027668  iACCESS:          0  iHIT:          0  iMISS:          0  dACCESS:   27765514  dHIT:   25737846  dMISS:    2027668  itACCESS:          0  itHIT:          0  itMISS:          0  dtACCESS:          0  dtHIT:          0  dtMISS:          0
cpu0_DTLB RFO          ACCESS:          0  HIT:          0  MISS:          0  iACCESS:          0  iHIT:          0  iMISS:          0  dACCESS:          0  dHIT:          0  dMISS:          0  itACCESS:          0  itHIT:          0  itMISS:          0  dtACCESS:          0  dtHIT:          0  dtMISS:          0
cpu0_DTLB PREFETCH     ACCESS:          0  HIT:          0  MISS:          0  iACCESS:          0  iHIT:          0  iMISS:          0  dACCESS:          0  dHIT:          0  dMISS:          0  itACCESS:          0  itHIT:          0  itMISS:          0  dtACCESS:          0  dtHIT:          0  dtMISS:          0
cpu0_DTLB WRITE        ACCESS:          0  HIT:          0  MISS:          0  iACCESS:          0  iHIT:          0  iMISS:          0  dACCESS:          0  dHIT:          0  dMISS:          0  itACCESS:          0  itHIT:          0  itMISS:          0  dtACCESS:          0  dtHIT:          0  dtMISS:          0
cpu0_DTLB TRANSLATION  ACCESS:          0  HIT:          0  MISS:          0  iACCESS:          0  iHIT:          0  iMISS:          0  dACCESS:          0  dHIT:          0  dMISS:          0  itACCESS:          0  itHIT:          0  itMISS:          0  dtACCESS:          0  dtHIT:          0  dtMISS:          0
cpu0_DTLB PREFETCH  REQUESTED:          0  ISSUED:          0  CROSSED:          0  USEFUL:          0  USELESS:          0
cpu0_DTLB AVERAGE iMISS LATENCY: 0 cycles
cpu0_DTLB AVERAGE dMISS LATENCY: 10.4391 cycles
cpu0_DTLB AVERAGE itMISS LATENCY: 0 cycles
cpu0_DTLB AVERAGE dtMISS LATENCY: 0 cycles
cpu0_DTLB PAGE CROSSINGS (TLB HIT):         0 
cpu0_DTLB PAGE CROSSINGS (TLB MISS):         0 
cpu0_DTLB AVERAGE MISS LATENCY: 10.4391 cycles
cpu0_STLB TOTAL       ACCESS:    1634766  HIT:    1487265  MISS:     147501  iACCESS:     381689  iHIT:     372183  iMISS:       9506  dACCESS:    1253077  dHIT:    1115082  dMISS:     137995  itACCESS:          0  itHIT:          0  itMISS:          0  dtACCESS:          0  dtHIT:          0  dtMISS:          0
cpu0_STLB LOAD         ACCESS:    1634766  HIT:    1487265  MISS:     147501  iACCESS:     381689  iHIT:     372183  iMISS:       9506  dACCESS:    1253077  dHIT:    1115082  dMISS:     137995  itACCESS:          0  itHIT:          0  itMISS:          0  dtACCESS:          0  dtHIT:          0  dtMISS:          0
cpu0_STLB RFO          ACCESS:          0  HIT:          0  MISS:          0  iACCESS:          0  iHIT:          0  iMISS:          0  dACCESS:          0  dHIT:          0  dMISS:          0  itACCESS:          0  itHIT:          0  itMISS:          0  dtACCESS:          0  dtHIT:          0  dtMISS:          0
cpu0_STLB PREFETCH     ACCESS:          0  HIT:          0  MISS:          0  iACCESS:          0  iHIT:          0  iMISS:          0  dACCESS:          0  dHIT:          0  dMISS:          0  itACCESS:          0  itHIT:          0  itMISS:          0  dtACCESS:          0  dtHIT:          0  dtMISS:          0
cpu0_STLB WRITE        ACCESS:          0  HIT:          0  MISS:          0  iACCESS:          0  iHIT:          0  iMISS:          0  dACCESS:          0  dHIT:          0  dMISS:          0  itACCESS:          0  itHIT:          0  itMISS:          0  dtACCESS:          0  dtHIT:          0  dtMISS:          0
cpu0_STLB TRANSLATION  ACCESS:          0  HIT:          0  MISS:          0  iACCESS:          0  iHIT:          0  iMISS:          0  dACCESS:          0  dHIT:          0  dMISS:          0  itACCESS:          0  itHIT:          0  itMISS:          0  dtACCESS:          0  dtHIT:          0  dtMISS:          0
cpu0_STLB PREFETCH  REQUESTED:          0  ISSUED:          0  CROSSED:          0  USEFUL:          0  USELESS:          0
cpu0_STLB AVERAGE iMISS LATENCY: 6.41544 cycles
cpu0_STLB AVERAGE dMISS LATENCY: 75.6989 cycles
cpu0_STLB AVERAGE itMISS LATENCY: 0 cycles
cpu0_STLB AVERAGE dtMISS LATENCY: 0 cycles
cpu0_STLB PAGE CROSSINGS (TLB HIT):         0 
cpu0_STLB PAGE CROSSINGS (TLB MISS):         0 
cpu0_STLB AVERAGE MISS LATENCY: 82.1143 cycles
cpu0_L1D TOTAL       ACCESS:   41647876  HIT:   38045022  MISS:    3602854  iACCESS:          0  iHIT:          0  iMISS:          0  dACCESS:   41428758  dHIT:   38031229  dMISS:    3397529  itACCESS:      11315  itHIT:       1066  itMISS:      10249  dtACCESS:     207803  dtHIT:      12727  dtMISS:     195076
cpu0_L1D LOAD         ACCESS:   18979826  HIT:   17436983  MISS:    1542843  iACCESS:          0  iHIT:          0  iMISS:          0  dACCESS:   18979826  dHIT:   17436983  dMISS:    1542843  itACCESS:          0  itHIT:          0  itMISS:          0  dtACCESS:          0  dtHIT:          0  dtMISS:          0
cpu0_L1D RFO          ACCESS:          0  HIT:          0  MISS:          0  iACCESS:          0  iHIT:          0  iMISS:          0  dACCESS:          0  dHIT:          0  dMISS:          0  itACCESS:          0  itHIT:          0  itMISS:          0  dtACCESS:          0  dtHIT:          0  dtMISS:          0
cpu0_L1D PREFETCH     ACCESS:   12238461  HIT:   10829770  MISS:    1408691  iACCESS:          0  iHIT:          0  iMISS:          0  dACCESS:   12238461  dHIT:   10829770  dMISS:    1408691  itACCESS:          0  itHIT:          0  itMISS:          0  dtACCESS:          0  dtHIT:          0  dtMISS:          0
cpu0_L1D WRITE        ACCESS:   10210471  HIT:    9764476  MISS:     445995  iACCESS:          0  iHIT:          0  iMISS:          0  dACCESS:   10210471  dHIT:    9764476  dMISS:     445995  itACCESS:          0  itHIT:          0  itMISS:          0  dtACCESS:          0  dtHIT:          0  dtMISS:          0
cpu0_L1D TRANSLATION  ACCESS:     219118  HIT:      13793  MISS:     205325  iACCESS:          0  iHIT:          0  iMISS:          0  dACCESS:          0  dHIT:          0  dMISS:          0  itACCESS:      11315  itHIT:       1066  itMISS:      10249  dtACCESS:     207803  dtHIT:      12727  dtMISS:     195076
cpu0_L1D PREFETCH  REQUESTED:   18979826  ISSUED:   17028631  CROSSED:          0  USEFUL:     306096  USELESS:     704101
cpu0_L1D AVERAGE iMISS LATENCY: 0 cycles
cpu0_L1D AVERAGE dMISS LATENCY: 35.8089 cycles
cpu0_L1D AVERAGE itMISS LATENCY: 0.234361 cycles
cpu0_L1D AVERAGE dtMISS LATENCY: 2.38462 cycles
cpu0_L1D PAGE CROSSINGS (TLB HIT):         0 
cpu0_L1D PAGE CROSSINGS (TLB MISS):         0 
cpu0_L1D AVERAGE MISS LATENCY: 38.4279 cycles
cpu0_L2C TOTAL       ACCESS:    7025197  HIT:    1221817  MISS:    5803380  iACCESS:    3316142  iHIT:     693521  iMISS:    2622621  dACCESS:    3515814  dHIT:     386866  dMISS:    3128948  itACCESS:      10249  itHIT:       4440  itMISS:       5809  dtACCESS:     182992  dtHIT:     136990  dtMISS:      46002
cpu0_L2C LOAD         ACCESS:    1708253  HIT:     128910  MISS:    1579343  iACCESS:     775720  iHIT:      91113  iMISS:     684607  dACCESS:     932533  dHIT:      37797  dMISS:     894736  itACCESS:          0  itHIT:          0  itMISS:          0  dtACCESS:          0  dtHIT:          0  dtMISS:          0
cpu0_L2C RFO          ACCESS:     159494  HIT:       8190  MISS:     151304  iACCESS:          0  iHIT:          0  iMISS:          0  dACCESS:     159494  dHIT:       8190  dMISS:     151304  itACCESS:          0  itHIT:          0  itMISS:          0  dtACCESS:          0  dtHIT:          0  dtMISS:          0
cpu0_L2C PREFETCH     ACCESS:    4681445  HIT:     881026  MISS:    3800419  iACCESS:    2540422  iHIT:     602408  iMISS:    1938014  dACCESS:    2141023  dHIT:     278618  dMISS:    1862405  itACCESS:          0  itHIT:          0  itMISS:          0  dtACCESS:          0  dtHIT:          0  dtMISS:          0
cpu0_L2C WRITE        ACCESS:     282764  HIT:      62261  MISS:     220503  iACCESS:          0  iHIT:          0  iMISS:          0  dACCESS:     282764  dHIT:      62261  dMISS:     220503  itACCESS:          0  itHIT:          0  itMISS:          0  dtACCESS:          0  dtHIT:          0  dtMISS:          0
cpu0_L2C TRANSLATION  ACCESS:     193241  HIT:     141430  MISS:      51811  iACCESS:          0  iHIT:          0  iMISS:          0  dACCESS:          0  dHIT:          0  dMISS:          0  itACCESS:      10249  itHIT:       4440  itMISS:       5809  dtACCESS:     182992  dtHIT:     136990  dtMISS:      46002
cpu0_L2C PREFETCH  REQUESTED:    1393800  ISSUED:    1393800  CROSSED:          0  USEFUL:     426784  USELESS:     395186
cpu0_L2C AVERAGE iMISS LATENCY: 15.5593 cycles
cpu0_L2C AVERAGE dMISS LATENCY: 26.2536 cycles
cpu0_L2C AVERAGE itMISS LATENCY: 0.128555 cycles
cpu0_L2C AVERAGE dtMISS LATENCY: 1.18714 cycles
cpu0_L2C PAGE CROSSINGS (TLB HIT):         0 
cpu0_L2C PAGE CROSSINGS (TLB MISS):         0 
cpu0_L2C AVERAGE MISS LATENCY: 43.1285 cycles
LLC TOTAL       ACCESS:    5713893  HIT:    4804337  MISS:     909556  iACCESS:    2561272  iHIT:    2284125  iMISS:     277147  dACCESS:    3100810  dHIT:    2505745  dMISS:     595065  itACCESS:       5809  itHIT:       2232  itMISS:       3577  dtACCESS:      46002  dtHIT:      12235  dtMISS:      33767
LLC LOAD         ACCESS:    1576444  HIT:    1370516  MISS:     205928  iACCESS:     682834  iHIT:     625498  iMISS:      57336  dACCESS:     893610  dHIT:     745018  dMISS:     148592  itACCESS:          0  itHIT:          0  itMISS:          0  dtACCESS:          0  dtHIT:          0  dtMISS:          0
LLC RFO          ACCESS:     151301  HIT:     108916  MISS:      42385  iACCESS:          0  iHIT:          0  iMISS:          0  dACCESS:     151301  dHIT:     108916  dMISS:      42385  itACCESS:          0  itHIT:          0  itMISS:          0  dtACCESS:          0  dtHIT:          0  dtMISS:          0
LLC PREFETCH     ACCESS:    3677728  HIT:    3053831  MISS:     623897  iACCESS:    1878438  iHIT:    1658627  iMISS:     219811  dACCESS:    1799290  dHIT:    1395204  dMISS:     404086  itACCESS:          0  itHIT:          0  itMISS:          0  dtACCESS:          0  dtHIT:          0  dtMISS:          0
LLC WRITE        ACCESS:     256609  HIT:     256607  MISS:          2  iACCESS:          0  iHIT:          0  iMISS:          0  dACCESS:     256609  dHIT:     256607  dMISS:          2  itACCESS:          0  itHIT:          0  itMISS:          0  dtACCESS:          0  dtHIT:          0  dtMISS:          0
LLC TRANSLATION  ACCESS:      51811  HIT:      14467  MISS:      37344  iACCESS:          0  iHIT:          0  iMISS:          0  dACCESS:          0  dHIT:          0  dMISS:          0  itACCESS:       5809  itHIT:       2232  itMISS:       3577  dtACCESS:      46002  dtHIT:      12235  dtMISS:      33767
LLC PREFETCH  REQUESTED:          0  ISSUED:          0  CROSSED:          0  USEFUL:          0  USELESS:          0
LLC AVERAGE iMISS LATENCY: 44.8826 cycles
LLC AVERAGE dMISS LATENCY: 107.296 cycles
LLC AVERAGE itMISS LATENCY: 0.695333 cycles
LLC AVERAGE dtMISS LATENCY: 6.57938 cycles
LLC PAGE CROSSINGS (TLB HIT):         0 
LLC PAGE CROSSINGS (TLB MISS):         0 
LLC AVERAGE MISS LATENCY: 159.453 cycles

PageTableWalker TOTAL       ACCESS:      74435  
PageTableWalker AVERAGE LATENCY: 4.71941 cycles
PageTableWalker TOTAL LATENCY: 351289 cycles

DRAM Statistics
Channel 0
 RQ ROW_BUFFER_HIT:     258206
  ROW_BUFFER_MISS:     650693
 AVG DBUS CONGESTED CYCLE:     3.6333
 WQ ROW_BUFFER_HIT:      22129
  ROW_BUFFER_MISS:      29724  FULL:          0

