last_page:0x200000000000000
VMEM_RES_CAP:0x100000
PAGE_SIZE:4096
LOG2_PAGE_SIZE:12
LOG2_PAGE_TABLE_SIZE:9
page_table_levels:5
WARNING: physical memory size is smaller than virtual memory size
FDiP enabled with aggresivity 16

*** ChampSim Multicore Out-of-Order Simulator ***

Warmup Instructions: 50000000
Simulation Instructions: 100000000
Number of CPUs: 1
Small page size: 4096
Large page size: 2097152

CPU 0 Bimodal branch predictor
Basic BTB sets: 1024 ways: 8 indirect buffer size: 4096 RAS size: 64
Instruction page size distrubution: 0
Loading instruction page size distribution from /home/bsc/bsc018186/scratch/itp_asplos25_AE/dump/srv697_ap.pdst
Data page size distrubution: 0
Loading data page size distribution from /home/bsc/bsc018186/scratch/itp_asplos25_AE/dump/srv697_ap.pdst
cpu0_L2C IP-based stride prefetcher
cpu0_L2C is using PTP replacement policy:
	TLB_STRESS_THRESHOLD:0
	PTE_EVICTION_RATIO:0
cpu0_L1D next line prefetcher
CHiRPing...
cpu0_L1I next line prefetcher
Off-chip DRAM Size: 4 GiB Channels: 1 Width: 64-bit Data Rate: 3200 MT/s
Heartbeat CPU 0 instructions: 10000000 cycles: 2500161 heartbeat IPC: 3.99975 cumulative IPC: 3.99975 (Simulation time: 0 hr 0 min 37 sec) 
Heartbeat CPU 0 instructions: 20000002 cycles: 5000218 heartbeat IPC: 3.99991 cumulative IPC: 3.99983 (Simulation time: 0 hr 1 min 17 sec) 
Heartbeat CPU 0 instructions: 30000002 cycles: 7500336 heartbeat IPC: 3.99982 cumulative IPC: 3.99983 (Simulation time: 0 hr 1 min 57 sec) 
Heartbeat CPU 0 instructions: 40000001 cycles: 10000411 heartbeat IPC: 3.99988 cumulative IPC: 3.99984 (Simulation time: 0 hr 2 min 37 sec) 
Heartbeat CPU 0 instructions: 50000001 cycles: 12500470 heartbeat IPC: 3.99991 cumulative IPC: 3.99985 (Simulation time: 0 hr 3 min 19 sec) 
Warmup finished CPU 0 instructions: 50000001 cycles: 12500471 cumulative IPC: 3.99985 (Simulation time: 0 hr 3 min 19 sec) 

Warmup complete CPU 0 instructions: 50000001 cycles: 12500471 (Simulation time: 0 hr 3 min 19 sec) 

Heartbeat CPU 0 instructions: 60000004 cycles: 26771846 heartbeat IPC: 0.700704 cumulative IPC: 0.700704 (Simulation time: 0 hr 4 min 23 sec) 
Heartbeat CPU 0 instructions: 70000000 cycles: 40379639 heartbeat IPC: 0.734873 cumulative IPC: 0.717382 (Simulation time: 0 hr 5 min 27 sec) 
Heartbeat CPU 0 instructions: 80000000 cycles: 54935524 heartbeat IPC: 0.687008 cumulative IPC: 0.706963 (Simulation time: 0 hr 6 min 33 sec) 
Heartbeat CPU 0 instructions: 90000002 cycles: 68708974 heartbeat IPC: 0.726035 cumulative IPC: 0.711637 (Simulation time: 0 hr 7 min 38 sec) 
Heartbeat CPU 0 instructions: 100000000 cycles: 82784888 heartbeat IPC: 0.710434 cumulative IPC: 0.711396 (Simulation time: 0 hr 8 min 44 sec) 
*** Reached end of trace: /gpfs/projects/bsc18/MN4/bsc18/romol/ChampSim/traces/qualcomm_srv/srv697_ap.champsimtrace.xz
Heartbeat CPU 0 instructions: 110000002 cycles: 96330406 heartbeat IPC: 0.738252 cumulative IPC: 0.715735 (Simulation time: 0 hr 9 min 48 sec) 
Heartbeat CPU 0 instructions: 120000000 cycles: 110128443 heartbeat IPC: 0.724741 cumulative IPC: 0.717008 (Simulation time: 0 hr 10 min 53 sec) 
Heartbeat CPU 0 instructions: 130000000 cycles: 124552908 heartbeat IPC: 0.693267 cumulative IPC: 0.713952 (Simulation time: 0 hr 11 min 59 sec) 
Heartbeat CPU 0 instructions: 140000003 cycles: 138052605 heartbeat IPC: 0.740758 cumulative IPC: 0.716834 (Simulation time: 0 hr 13 min 3 sec) 
Heartbeat CPU 0 instructions: 150000000 cycles: 152376515 heartbeat IPC: 0.698134 cumulative IPC: 0.714919 (Simulation time: 0 hr 14 min 9 sec) 
Simulation finished CPU 0 instructions: 100000002 cycles: 139876046 cumulative IPC: 0.714919 (Simulation time: 0 hr 14 min 9 sec) 

Simulation complete CPU 0 instructions: 100000002 cycles: 139876046 (Simulation time: 0 hr 14 min 9 sec) 


ChampSim completed all CPUs

Saving instructions large page distribution to /home/bsc/bsc018186/scratch/itp_asplos25_AE/dump/srv697_ap.pdst...
Saving data large page distribution to /home/bsc/bsc018186/scratch/itp_asplos25_AE/dump/srv697_ap.pdst...
=== Simulation ===
CPU 0 runs /gpfs/projects/bsc18/MN4/bsc18/romol/ChampSim/traces/qualcomm_srv/srv697_ap.champsimtrace.xz

Region of Interest Statistics

CPU 0 cumulative IPC: 0.714919 instructions: 100000002 cycles: 139876046
CPU 0 Branch Prediction Accuracy: 83.463% MPKI: 29.7079 Average ROB Occupancy at Mispredict: 12.3619
Branch type MPKI
BRANCH_DIRECT_JUMP: 0.95082
BRANCH_INDIRECT: 15.4078
BRANCH_CONDITIONAL: 9.71741
BRANCH_DIRECT_CALL: 1.81124
BRANCH_INDIRECT_CALL: 0.50032
BRANCH_RETURN: 1.3204

Instructions large pages: 0
Instructions small pages: 9679
Large page distribution for instructions: 0%

Data large pages: 0
Data small pages: 8829
Large page distribution for data: 0%

cpu0_L1I TOTAL       ACCESS:   35141805  HIT:   26534226  MISS:    8607579  iACCESS:   35141805  iHIT:   26534226  iMISS:    8607579  dACCESS:          0  dHIT:          0  dMISS:          0  itACCESS:          0  itHIT:          0  itMISS:          0  dtACCESS:          0  dtHIT:          0  dtMISS:          0
cpu0_L1I LOAD         ACCESS:   10230284  HIT:    7826603  MISS:    2403681  iACCESS:   10230284  iHIT:    7826603  iMISS:    2403681  dACCESS:          0  dHIT:          0  dMISS:          0  itACCESS:          0  itHIT:          0  itMISS:          0  dtACCESS:          0  dtHIT:          0  dtMISS:          0
cpu0_L1I RFO          ACCESS:          0  HIT:          0  MISS:          0  iACCESS:          0  iHIT:          0  iMISS:          0  dACCESS:          0  dHIT:          0  dMISS:          0  itACCESS:          0  itHIT:          0  itMISS:          0  dtACCESS:          0  dtHIT:          0  dtMISS:          0
cpu0_L1I PREFETCH     ACCESS:   24911521  HIT:   18707623  MISS:    6203898  iACCESS:   24911521  iHIT:   18707623  iMISS:    6203898  dACCESS:          0  dHIT:          0  dMISS:          0  itACCESS:          0  itHIT:          0  itMISS:          0  dtACCESS:          0  dtHIT:          0  dtMISS:          0
cpu0_L1I WRITE        ACCESS:          0  HIT:          0  MISS:          0  iACCESS:          0  iHIT:          0  iMISS:          0  dACCESS:          0  dHIT:          0  dMISS:          0  itACCESS:          0  itHIT:          0  itMISS:          0  dtACCESS:          0  dtHIT:          0  dtMISS:          0
cpu0_L1I TRANSLATION  ACCESS:          0  HIT:          0  MISS:          0  iACCESS:          0  iHIT:          0  iMISS:          0  dACCESS:          0  dHIT:          0  dMISS:          0  itACCESS:          0  itHIT:          0  itMISS:          0  dtACCESS:          0  dtHIT:          0  dtMISS:          0
cpu0_L1I PREFETCH  REQUESTED:   27128713  ISSUED:   27125393  CROSSED:          0  USEFUL:    1934642  USELESS:     638753
cpu0_L1I AVERAGE iMISS LATENCY: 13.6016 cycles
cpu0_L1I AVERAGE dMISS LATENCY: 0 cycles
cpu0_L1I AVERAGE itMISS LATENCY: 0 cycles
cpu0_L1I AVERAGE dtMISS LATENCY: 0 cycles
cpu0_L1I PAGE CROSSINGS (TLB HIT):         0 
cpu0_L1I PAGE CROSSINGS (TLB MISS):         0 
cpu0_L1I AVERAGE MISS LATENCY: 13.6016 cycles
cpu0_ITLB TOTAL       ACCESS:   29031996  HIT:   27037001  MISS:    1994995  iACCESS:   29031996  iHIT:   27037001  iMISS:    1994995  dACCESS:          0  dHIT:          0  dMISS:          0  itACCESS:          0  itHIT:          0  itMISS:          0  dtACCESS:          0  dtHIT:          0  dtMISS:          0
cpu0_ITLB LOAD         ACCESS:   29031996  HIT:   27037001  MISS:    1994995  iACCESS:   29031996  iHIT:   27037001  iMISS:    1994995  dACCESS:          0  dHIT:          0  dMISS:          0  itACCESS:          0  itHIT:          0  itMISS:          0  dtACCESS:          0  dtHIT:          0  dtMISS:          0
cpu0_ITLB RFO          ACCESS:          0  HIT:          0  MISS:          0  iACCESS:          0  iHIT:          0  iMISS:          0  dACCESS:          0  dHIT:          0  dMISS:          0  itACCESS:          0  itHIT:          0  itMISS:          0  dtACCESS:          0  dtHIT:          0  dtMISS:          0
cpu0_ITLB PREFETCH     ACCESS:          0  HIT:          0  MISS:          0  iACCESS:          0  iHIT:          0  iMISS:          0  dACCESS:          0  dHIT:          0  dMISS:          0  itACCESS:          0  itHIT:          0  itMISS:          0  dtACCESS:          0  dtHIT:          0  dtMISS:          0
cpu0_ITLB WRITE        ACCESS:          0  HIT:          0  MISS:          0  iACCESS:          0  iHIT:          0  iMISS:          0  dACCESS:          0  dHIT:          0  dMISS:          0  itACCESS:          0  itHIT:          0  itMISS:          0  dtACCESS:          0  dtHIT:          0  dtMISS:          0
cpu0_ITLB TRANSLATION  ACCESS:          0  HIT:          0  MISS:          0  iACCESS:          0  iHIT:          0  iMISS:          0  dACCESS:          0  dHIT:          0  dMISS:          0  itACCESS:          0  itHIT:          0  itMISS:          0  dtACCESS:          0  dtHIT:          0  dtMISS:          0
cpu0_ITLB PREFETCH  REQUESTED:          0  ISSUED:          0  CROSSED:          0  USEFUL:     326308  USELESS:      62618
cpu0_ITLB AVERAGE iMISS LATENCY: 2.79654 cycles
cpu0_ITLB AVERAGE dMISS LATENCY: 0 cycles
cpu0_ITLB AVERAGE itMISS LATENCY: 0 cycles
cpu0_ITLB AVERAGE dtMISS LATENCY: 0 cycles
cpu0_ITLB PAGE CROSSINGS (TLB HIT):         0 
cpu0_ITLB PAGE CROSSINGS (TLB MISS):         0 
cpu0_ITLB AVERAGE MISS LATENCY: 2.79654 cycles
cpu0_DTLB TOTAL       ACCESS:   27732292  HIT:   25706077  MISS:    2026215  iACCESS:          0  iHIT:          0  iMISS:          0  dACCESS:   27732292  dHIT:   25706077  dMISS:    2026215  itACCESS:          0  itHIT:          0  itMISS:          0  dtACCESS:          0  dtHIT:          0  dtMISS:          0
cpu0_DTLB LOAD         ACCESS:   27732292  HIT:   25706077  MISS:    2026215  iACCESS:          0  iHIT:          0  iMISS:          0  dACCESS:   27732292  dHIT:   25706077  dMISS:    2026215  itACCESS:          0  itHIT:          0  itMISS:          0  dtACCESS:          0  dtHIT:          0  dtMISS:          0
cpu0_DTLB RFO          ACCESS:          0  HIT:          0  MISS:          0  iACCESS:          0  iHIT:          0  iMISS:          0  dACCESS:          0  dHIT:          0  dMISS:          0  itACCESS:          0  itHIT:          0  itMISS:          0  dtACCESS:          0  dtHIT:          0  dtMISS:          0
cpu0_DTLB PREFETCH     ACCESS:          0  HIT:          0  MISS:          0  iACCESS:          0  iHIT:          0  iMISS:          0  dACCESS:          0  dHIT:          0  dMISS:          0  itACCESS:          0  itHIT:          0  itMISS:          0  dtACCESS:          0  dtHIT:          0  dtMISS:          0
cpu0_DTLB WRITE        ACCESS:          0  HIT:          0  MISS:          0  iACCESS:          0  iHIT:          0  iMISS:          0  dACCESS:          0  dHIT:          0  dMISS:          0  itACCESS:          0  itHIT:          0  itMISS:          0  dtACCESS:          0  dtHIT:          0  dtMISS:          0
cpu0_DTLB TRANSLATION  ACCESS:          0  HIT:          0  MISS:          0  iACCESS:          0  iHIT:          0  iMISS:          0  dACCESS:          0  dHIT:          0  dMISS:          0  itACCESS:          0  itHIT:          0  itMISS:          0  dtACCESS:          0  dtHIT:          0  dtMISS:          0
cpu0_DTLB PREFETCH  REQUESTED:          0  ISSUED:          0  CROSSED:          0  USEFUL:          0  USELESS:          0
cpu0_DTLB AVERAGE iMISS LATENCY: 0 cycles
cpu0_DTLB AVERAGE dMISS LATENCY: 8.69217 cycles
cpu0_DTLB AVERAGE itMISS LATENCY: 0 cycles
cpu0_DTLB AVERAGE dtMISS LATENCY: 0 cycles
cpu0_DTLB PAGE CROSSINGS (TLB HIT):         0 
cpu0_DTLB PAGE CROSSINGS (TLB MISS):         0 
cpu0_DTLB AVERAGE MISS LATENCY: 8.69217 cycles
cpu0_STLB TOTAL       ACCESS:    1631278  HIT:    1469902  MISS:     161376  iACCESS:     388960  iHIT:     332346  iMISS:      56614  dACCESS:    1242318  dHIT:    1137556  dMISS:     104762  itACCESS:          0  itHIT:          0  itMISS:          0  dtACCESS:          0  dtHIT:          0  dtMISS:          0
cpu0_STLB LOAD         ACCESS:    1631278  HIT:    1469902  MISS:     161376  iACCESS:     388960  iHIT:     332346  iMISS:      56614  dACCESS:    1242318  dHIT:    1137556  dMISS:     104762  itACCESS:          0  itHIT:          0  itMISS:          0  dtACCESS:          0  dtHIT:          0  dtMISS:          0
cpu0_STLB RFO          ACCESS:          0  HIT:          0  MISS:          0  iACCESS:          0  iHIT:          0  iMISS:          0  dACCESS:          0  dHIT:          0  dMISS:          0  itACCESS:          0  itHIT:          0  itMISS:          0  dtACCESS:          0  dtHIT:          0  dtMISS:          0
cpu0_STLB PREFETCH     ACCESS:          0  HIT:          0  MISS:          0  iACCESS:          0  iHIT:          0  iMISS:          0  dACCESS:          0  dHIT:          0  dMISS:          0  itACCESS:          0  itHIT:          0  itMISS:          0  dtACCESS:          0  dtHIT:          0  dtMISS:          0
cpu0_STLB WRITE        ACCESS:          0  HIT:          0  MISS:          0  iACCESS:          0  iHIT:          0  iMISS:          0  dACCESS:          0  dHIT:          0  dMISS:          0  itACCESS:          0  itHIT:          0  itMISS:          0  dtACCESS:          0  dtHIT:          0  dtMISS:          0
cpu0_STLB TRANSLATION  ACCESS:          0  HIT:          0  MISS:          0  iACCESS:          0  iHIT:          0  iMISS:          0  dACCESS:          0  dHIT:          0  dMISS:          0  itACCESS:          0  itHIT:          0  itMISS:          0  dtACCESS:          0  dtHIT:          0  dtMISS:          0
cpu0_STLB PREFETCH  REQUESTED:          0  ISSUED:          0  CROSSED:          0  USEFUL:          0  USELESS:          0
cpu0_STLB AVERAGE iMISS LATENCY: 15.5642 cycles
cpu0_STLB AVERAGE dMISS LATENCY: 47.8539 cycles
cpu0_STLB AVERAGE itMISS LATENCY: 0 cycles
cpu0_STLB AVERAGE dtMISS LATENCY: 0 cycles
cpu0_STLB PAGE CROSSINGS (TLB HIT):         0 
cpu0_STLB PAGE CROSSINGS (TLB MISS):         0 
cpu0_STLB AVERAGE MISS LATENCY: 63.4181 cycles
cpu0_L1D TOTAL       ACCESS:   41508644  HIT:   37953177  MISS:    3555467  iACCESS:          0  iHIT:          0  iMISS:          0  dACCESS:   41289171  dHIT:   37933641  dMISS:    3355530  itACCESS:      61553  itHIT:       9163  itMISS:      52390  dtACCESS:     157920  dtHIT:      10373  dtMISS:     147547
cpu0_L1D LOAD         ACCESS:   18943624  HIT:   17419678  MISS:    1523946  iACCESS:          0  iHIT:          0  iMISS:          0  dACCESS:   18943624  dHIT:   17419678  dMISS:    1523946  itACCESS:          0  itHIT:          0  itMISS:          0  dtACCESS:          0  dtHIT:          0  dtMISS:          0
cpu0_L1D RFO          ACCESS:          0  HIT:          0  MISS:          0  iACCESS:          0  iHIT:          0  iMISS:          0  dACCESS:          0  dHIT:          0  dMISS:          0  itACCESS:          0  itHIT:          0  itMISS:          0  dtACCESS:          0  dtHIT:          0  dtMISS:          0
cpu0_L1D PREFETCH     ACCESS:   12185519  HIT:   10799402  MISS:    1386117  iACCESS:          0  iHIT:          0  iMISS:          0  dACCESS:   12185519  dHIT:   10799402  dMISS:    1386117  itACCESS:          0  itHIT:          0  itMISS:          0  dtACCESS:          0  dtHIT:          0  dtMISS:          0
cpu0_L1D WRITE        ACCESS:   10160028  HIT:    9714561  MISS:     445467  iACCESS:          0  iHIT:          0  iMISS:          0  dACCESS:   10160028  dHIT:    9714561  dMISS:     445467  itACCESS:          0  itHIT:          0  itMISS:          0  dtACCESS:          0  dtHIT:          0  dtMISS:          0
cpu0_L1D TRANSLATION  ACCESS:     219473  HIT:      19536  MISS:     199937  iACCESS:          0  iHIT:          0  iMISS:          0  dACCESS:          0  dHIT:          0  dMISS:          0  itACCESS:      61553  itHIT:       9163  itMISS:      52390  dtACCESS:     157920  dtHIT:      10373  dtMISS:     147547
cpu0_L1D PREFETCH  REQUESTED:   18943624  ISSUED:   16964949  CROSSED:          0  USEFUL:     309197  USELESS:     700391
cpu0_L1D AVERAGE iMISS LATENCY: 0 cycles
cpu0_L1D AVERAGE dMISS LATENCY: 34.5435 cycles
cpu0_L1D AVERAGE itMISS LATENCY: 0.570147 cycles
cpu0_L1D AVERAGE dtMISS LATENCY: 1.55637 cycles
cpu0_L1D PAGE CROSSINGS (TLB HIT):         0 
cpu0_L1D PAGE CROSSINGS (TLB MISS):         0 
cpu0_L1D AVERAGE MISS LATENCY: 36.67 cycles
cpu0_L2C TOTAL       ACCESS:    7007700  HIT:    1238558  MISS:    5769142  iACCESS:    3330467  iHIT:     707571  iMISS:    2622896  dACCESS:    3486565  dHIT:     379486  dMISS:    3107079  itACCESS:      52360  itHIT:      40086  itMISS:      12274  dtACCESS:     138308  dtHIT:     111415  dtMISS:      26893
cpu0_L2C LOAD         ACCESS:    1728132  HIT:     141405  MISS:    1586727  iACCESS:     796424  iHIT:     106869  iMISS:     689555  dACCESS:     931708  dHIT:      34536  dMISS:     897172  itACCESS:          0  itHIT:          0  itMISS:          0  dtACCESS:          0  dtHIT:          0  dtMISS:          0
cpu0_L2C RFO          ACCESS:     156135  HIT:       8239  MISS:     147896  iACCESS:          0  iHIT:          0  iMISS:          0  dACCESS:     156135  dHIT:       8239  dMISS:     147896  itACCESS:          0  itHIT:          0  itMISS:          0  dtACCESS:          0  dtHIT:          0  dtMISS:          0
cpu0_L2C PREFETCH     ACCESS:    4649032  HIT:     876841  MISS:    3772191  iACCESS:    2534043  iHIT:     600702  iMISS:    1933341  dACCESS:    2114989  dHIT:     276139  dMISS:    1838850  itACCESS:          0  itHIT:          0  itMISS:          0  dtACCESS:          0  dtHIT:          0  dtMISS:          0
cpu0_L2C WRITE        ACCESS:     283733  HIT:      60572  MISS:     223161  iACCESS:          0  iHIT:          0  iMISS:          0  dACCESS:     283733  dHIT:      60572  dMISS:     223161  itACCESS:          0  itHIT:          0  itMISS:          0  dtACCESS:          0  dtHIT:          0  dtMISS:          0
cpu0_L2C TRANSLATION  ACCESS:     190668  HIT:     151501  MISS:      39167  iACCESS:          0  iHIT:          0  iMISS:          0  dACCESS:          0  dHIT:          0  dMISS:          0  itACCESS:      52360  itHIT:      40086  itMISS:      12274  dtACCESS:     138308  dtHIT:     111415  dtMISS:      26893
cpu0_L2C PREFETCH  REQUESTED:    1388063  ISSUED:    1388063  CROSSED:          0  USEFUL:     416644  USELESS:     391837
cpu0_L2C AVERAGE iMISS LATENCY: 14.8625 cycles
cpu0_L2C AVERAGE dMISS LATENCY: 24.7491 cycles
cpu0_L2C AVERAGE itMISS LATENCY: 0.267347 cycles
cpu0_L2C AVERAGE dtMISS LATENCY: 0.737531 cycles
cpu0_L2C PAGE CROSSINGS (TLB HIT):         0 
cpu0_L2C PAGE CROSSINGS (TLB MISS):         0 
cpu0_L2C AVERAGE MISS LATENCY: 40.6164 cycles
LLC TOTAL       ACCESS:    5693887  HIT:    4879876  MISS:     814011  iACCESS:    2565044  iHIT:    2318967  iMISS:     246077  dACCESS:    3089676  dHIT:    2550236  dMISS:     539440  itACCESS:      12274  itHIT:       4713  itMISS:       7561  dtACCESS:      26893  dtHIT:       5960  dtMISS:      20933
LLC LOAD         ACCESS:    1584754  HIT:    1395444  MISS:     189310  iACCESS:     687862  iHIT:     635144  iMISS:      52718  dACCESS:     896892  dHIT:     760300  dMISS:     136592  itACCESS:          0  itHIT:          0  itMISS:          0  dtACCESS:          0  dtHIT:          0  dtMISS:          0
LLC RFO          ACCESS:     147865  HIT:     109132  MISS:      38733  iACCESS:          0  iHIT:          0  iMISS:          0  dACCESS:     147865  dHIT:     109132  dMISS:      38733  itACCESS:          0  itHIT:          0  itMISS:          0  dtACCESS:          0  dtHIT:          0  dtMISS:          0
LLC PREFETCH     ACCESS:    3663514  HIT:    3106040  MISS:     557474  iACCESS:    1877182  iHIT:    1683823  iMISS:     193359  dACCESS:    1786332  dHIT:    1422217  dMISS:     364115  itACCESS:          0  itHIT:          0  itMISS:          0  dtACCESS:          0  dtHIT:          0  dtMISS:          0
LLC WRITE        ACCESS:     258587  HIT:     258587  MISS:          0  iACCESS:          0  iHIT:          0  iMISS:          0  dACCESS:     258587  dHIT:     258587  dMISS:          0  itACCESS:          0  itHIT:          0  itMISS:          0  dtACCESS:          0  dtHIT:          0  dtMISS:          0
LLC TRANSLATION  ACCESS:      39167  HIT:      10673  MISS:      28494  iACCESS:          0  iHIT:          0  iMISS:          0  dACCESS:          0  dHIT:          0  dMISS:          0  itACCESS:      12274  itHIT:       4713  itMISS:       7561  dtACCESS:      26893  dtHIT:       5960  dtMISS:      20933
LLC PREFETCH  REQUESTED:          0  ISSUED:          0  CROSSED:          0  USEFUL:          0  USELESS:          0
LLC AVERAGE iMISS LATENCY: 44.5306 cycles
LLC AVERAGE dMISS LATENCY: 108.16 cycles
LLC AVERAGE itMISS LATENCY: 1.59941 cycles
LLC AVERAGE dtMISS LATENCY: 4.57657 cycles
LLC PAGE CROSSINGS (TLB HIT):         0 
LLC PAGE CROSSINGS (TLB MISS):         0 
LLC AVERAGE MISS LATENCY: 158.866 cycles

PageTableWalker TOTAL       ACCESS:      81652  
PageTableWalker AVERAGE LATENCY: 4.14506 cycles
PageTableWalker TOTAL LATENCY: 338452 cycles

DRAM Statistics
Channel 0
 RQ ROW_BUFFER_HIT:     229021
  ROW_BUFFER_MISS:     584961
 AVG DBUS CONGESTED CYCLE:    3.63194
 WQ ROW_BUFFER_HIT:      20155
  ROW_BUFFER_MISS:      29634  FULL:          0

