last_page:0x200000000000000
VMEM_RES_CAP:0x100000
PAGE_SIZE:4096
LOG2_PAGE_SIZE:12
LOG2_PAGE_TABLE_SIZE:9
page_table_levels:5
WARNING: physical memory size is smaller than virtual memory size
FDiP enabled with aggresivity 16

*** ChampSim Multicore Out-of-Order Simulator ***

Warmup Instructions: 50000000
Simulation Instructions: 100000000
Number of CPUs: 1
Small page size: 4096
Large page size: 2097152

CPU 0 Bimodal branch predictor
Basic BTB sets: 1024 ways: 8 indirect buffer size: 4096 RAS size: 64
Instruction page size distrubution: 0
Loading instruction page size distribution from /home/bsc/bsc018186/scratch/itp_asplos25_AE/dump/srv675_ap.pdst
Data page size distrubution: 0
Loading data page size distribution from /home/bsc/bsc018186/scratch/itp_asplos25_AE/dump/srv675_ap.pdst
cpu0_L2C IP-based stride prefetcher
cpu0_L2C is using xPTP/LRU
	TLB_LOWER_STRESS_THRESHOLD:1
	TLB_UPPER_STRESS_THRESHOLD:9
	MIN_EVICTION_POSITION:4
cpu0_L1D next line prefetcher
cpu0_STLB using iTP with max lru@8
cpu0_STLB using iTP with instr@0 and data@2
Init sat counter with 3 bits (max:50).
cpu0_L1I next line prefetcher
Off-chip DRAM Size: 4 GiB Channels: 1 Width: 64-bit Data Rate: 3200 MT/s
Heartbeat CPU 0 instructions: 10000001 cycles: 2500180 heartbeat IPC: 3.99972 cumulative IPC: 3.99972 (Simulation time: 0 hr 0 min 41 sec) 
Heartbeat CPU 0 instructions: 20000003 cycles: 5000200 heartbeat IPC: 3.99997 cumulative IPC: 3.99985 (Simulation time: 0 hr 1 min 23 sec) 
Heartbeat CPU 0 instructions: 30000002 cycles: 7500260 heartbeat IPC: 3.99991 cumulative IPC: 3.99987 (Simulation time: 0 hr 2 min 6 sec) 
Heartbeat CPU 0 instructions: 40000000 cycles: 10000319 heartbeat IPC: 3.99991 cumulative IPC: 3.99988 (Simulation time: 0 hr 2 min 50 sec) 
Heartbeat CPU 0 instructions: 50000003 cycles: 12502062 heartbeat IPC: 3.99722 cumulative IPC: 3.99935 (Simulation time: 0 hr 3 min 33 sec) 
Warmup finished CPU 0 instructions: 50000003 cycles: 12502063 cumulative IPC: 3.99935 (Simulation time: 0 hr 3 min 33 sec) 

Warmup complete CPU 0 instructions: 50000003 cycles: 12502063 (Simulation time: 0 hr 3 min 33 sec) 

Heartbeat CPU 0 instructions: 60000000 cycles: 25211390 heartbeat IPC: 0.786824 cumulative IPC: 0.786824 (Simulation time: 0 hr 4 min 39 sec) 
Heartbeat CPU 0 instructions: 70000000 cycles: 38373658 heartbeat IPC: 0.759748 cumulative IPC: 0.773049 (Simulation time: 0 hr 5 min 45 sec) 
Heartbeat CPU 0 instructions: 80000004 cycles: 51048047 heartbeat IPC: 0.788993 cumulative IPC: 0.778292 (Simulation time: 0 hr 6 min 52 sec) 
Heartbeat CPU 0 instructions: 90000004 cycles: 63776658 heartbeat IPC: 0.785632 cumulative IPC: 0.780114 (Simulation time: 0 hr 8 min 0 sec) 
Heartbeat CPU 0 instructions: 100000002 cycles: 75905267 heartbeat IPC: 0.824497 cumulative IPC: 0.788604 (Simulation time: 0 hr 9 min 5 sec) 
*** Reached end of trace: /gpfs/projects/bsc18/MN4/bsc18/romol/ChampSim/traces/qualcomm_srv/srv675_ap.champsimtrace.xz
Heartbeat CPU 0 instructions: 110000001 cycles: 88503335 heartbeat IPC: 0.793773 cumulative IPC: 0.789461 (Simulation time: 0 hr 10 min 7 sec) 
Heartbeat CPU 0 instructions: 120000000 cycles: 100885339 heartbeat IPC: 0.807624 cumulative IPC: 0.792006 (Simulation time: 0 hr 11 min 10 sec) 
Heartbeat CPU 0 instructions: 130000000 cycles: 113340817 heartbeat IPC: 0.80286 cumulative IPC: 0.793346 (Simulation time: 0 hr 12 min 13 sec) 
Heartbeat CPU 0 instructions: 140000000 cycles: 125663203 heartbeat IPC: 0.811532 cumulative IPC: 0.795327 (Simulation time: 0 hr 13 min 14 sec) 
Heartbeat CPU 0 instructions: 150000004 cycles: 138159635 heartbeat IPC: 0.800229 cumulative IPC: 0.795814 (Simulation time: 0 hr 14 min 16 sec) 
Simulation finished CPU 0 instructions: 100000001 cycles: 125657573 cumulative IPC: 0.795814 (Simulation time: 0 hr 14 min 16 sec) 

Simulation complete CPU 0 instructions: 100000001 cycles: 125657573 (Simulation time: 0 hr 14 min 16 sec) 


ChampSim completed all CPUs

Saving instructions large page distribution to /home/bsc/bsc018186/scratch/itp_asplos25_AE/dump/srv675_ap.pdst...
Saving data large page distribution to /home/bsc/bsc018186/scratch/itp_asplos25_AE/dump/srv675_ap.pdst...
=== Simulation ===
CPU 0 runs /gpfs/projects/bsc18/MN4/bsc18/romol/ChampSim/traces/qualcomm_srv/srv675_ap.champsimtrace.xz

Region of Interest Statistics

CPU 0 cumulative IPC: 0.795814 instructions: 100000001 cycles: 125657573
CPU 0 Branch Prediction Accuracy: 83.474% MPKI: 29.6585 Average ROB Occupancy at Mispredict: 12.5076
Branch type MPKI
BRANCH_DIRECT_JUMP: 0.94247
BRANCH_INDIRECT: 15.3874
BRANCH_CONDITIONAL: 9.71211
BRANCH_DIRECT_CALL: 1.80423
BRANCH_INDIRECT_CALL: 0.49851
BRANCH_RETURN: 1.31372

Instructions large pages: 0
Instructions small pages: 10164
Large page distribution for instructions: 0%

Data large pages: 0
Data small pages: 9227
Large page distribution for data: 0%

cpu0_L1I TOTAL       ACCESS:   34751074  HIT:   26635065  MISS:    8116009  iACCESS:   34751074  iHIT:   26635065  iMISS:    8116009  dACCESS:          0  dHIT:          0  dMISS:          0  itACCESS:          0  itHIT:          0  itMISS:          0  dtACCESS:          0  dtHIT:          0  dtMISS:          0
cpu0_L1I LOAD         ACCESS:   10143328  HIT:    7868620  MISS:    2274708  iACCESS:   10143328  iHIT:    7868620  iMISS:    2274708  dACCESS:          0  dHIT:          0  dMISS:          0  itACCESS:          0  itHIT:          0  itMISS:          0  dtACCESS:          0  dtHIT:          0  dtMISS:          0
cpu0_L1I RFO          ACCESS:          0  HIT:          0  MISS:          0  iACCESS:          0  iHIT:          0  iMISS:          0  dACCESS:          0  dHIT:          0  dMISS:          0  itACCESS:          0  itHIT:          0  itMISS:          0  dtACCESS:          0  dtHIT:          0  dtMISS:          0
cpu0_L1I PREFETCH     ACCESS:   24607746  HIT:   18766445  MISS:    5841301  iACCESS:   24607746  iHIT:   18766445  iMISS:    5841301  dACCESS:          0  dHIT:          0  dMISS:          0  itACCESS:          0  itHIT:          0  itMISS:          0  dtACCESS:          0  dtHIT:          0  dtMISS:          0
cpu0_L1I WRITE        ACCESS:          0  HIT:          0  MISS:          0  iACCESS:          0  iHIT:          0  iMISS:          0  dACCESS:          0  dHIT:          0  dMISS:          0  itACCESS:          0  itHIT:          0  itMISS:          0  dtACCESS:          0  dtHIT:          0  dtMISS:          0
cpu0_L1I TRANSLATION  ACCESS:          0  HIT:          0  MISS:          0  iACCESS:          0  iHIT:          0  iMISS:          0  dACCESS:          0  dHIT:          0  dMISS:          0  itACCESS:          0  itHIT:          0  itMISS:          0  dtACCESS:          0  dtHIT:          0  dtMISS:          0
cpu0_L1I PREFETCH  REQUESTED:   27023162  ISSUED:   27023112  CROSSED:          0  USEFUL:    1934018  USELESS:     634988
cpu0_L1I AVERAGE iMISS LATENCY: 10.587 cycles
cpu0_L1I AVERAGE dMISS LATENCY: 0 cycles
cpu0_L1I AVERAGE itMISS LATENCY: 0 cycles
cpu0_L1I AVERAGE dtMISS LATENCY: 0 cycles
cpu0_L1I PAGE CROSSINGS (TLB HIT):         0 
cpu0_L1I PAGE CROSSINGS (TLB MISS):         0 
cpu0_L1I AVERAGE MISS LATENCY: 10.587 cycles
cpu0_ITLB TOTAL       ACCESS:   28938192  HIT:   26957348  MISS:    1980844  iACCESS:   28938192  iHIT:   26957348  iMISS:    1980844  dACCESS:          0  dHIT:          0  dMISS:          0  itACCESS:          0  itHIT:          0  itMISS:          0  dtACCESS:          0  dtHIT:          0  dtMISS:          0
cpu0_ITLB LOAD         ACCESS:   28938192  HIT:   26957348  MISS:    1980844  iACCESS:   28938192  iHIT:   26957348  iMISS:    1980844  dACCESS:          0  dHIT:          0  dMISS:          0  itACCESS:          0  itHIT:          0  itMISS:          0  dtACCESS:          0  dtHIT:          0  dtMISS:          0
cpu0_ITLB RFO          ACCESS:          0  HIT:          0  MISS:          0  iACCESS:          0  iHIT:          0  iMISS:          0  dACCESS:          0  dHIT:          0  dMISS:          0  itACCESS:          0  itHIT:          0  itMISS:          0  dtACCESS:          0  dtHIT:          0  dtMISS:          0
cpu0_ITLB PREFETCH     ACCESS:          0  HIT:          0  MISS:          0  iACCESS:          0  iHIT:          0  iMISS:          0  dACCESS:          0  dHIT:          0  dMISS:          0  itACCESS:          0  itHIT:          0  itMISS:          0  dtACCESS:          0  dtHIT:          0  dtMISS:          0
cpu0_ITLB WRITE        ACCESS:          0  HIT:          0  MISS:          0  iACCESS:          0  iHIT:          0  iMISS:          0  dACCESS:          0  dHIT:          0  dMISS:          0  itACCESS:          0  itHIT:          0  itMISS:          0  dtACCESS:          0  dtHIT:          0  dtMISS:          0
cpu0_ITLB TRANSLATION  ACCESS:          0  HIT:          0  MISS:          0  iACCESS:          0  iHIT:          0  iMISS:          0  dACCESS:          0  dHIT:          0  dMISS:          0  itACCESS:          0  itHIT:          0  itMISS:          0  dtACCESS:          0  dtHIT:          0  dtMISS:          0
cpu0_ITLB PREFETCH  REQUESTED:          0  ISSUED:          0  CROSSED:          0  USEFUL:     324800  USELESS:      63223
cpu0_ITLB AVERAGE iMISS LATENCY: 1.8421 cycles
cpu0_ITLB AVERAGE dMISS LATENCY: 0 cycles
cpu0_ITLB AVERAGE itMISS LATENCY: 0 cycles
cpu0_ITLB AVERAGE dtMISS LATENCY: 0 cycles
cpu0_ITLB PAGE CROSSINGS (TLB HIT):         0 
cpu0_ITLB PAGE CROSSINGS (TLB MISS):         0 
cpu0_ITLB AVERAGE MISS LATENCY: 1.8421 cycles
cpu0_DTLB TOTAL       ACCESS:   27727046  HIT:   25633642  MISS:    2093404  iACCESS:          0  iHIT:          0  iMISS:          0  dACCESS:   27727046  dHIT:   25633642  dMISS:    2093404  itACCESS:          0  itHIT:          0  itMISS:          0  dtACCESS:          0  dtHIT:          0  dtMISS:          0
cpu0_DTLB LOAD         ACCESS:   27727046  HIT:   25633642  MISS:    2093404  iACCESS:          0  iHIT:          0  iMISS:          0  dACCESS:   27727046  dHIT:   25633642  dMISS:    2093404  itACCESS:          0  itHIT:          0  itMISS:          0  dtACCESS:          0  dtHIT:          0  dtMISS:          0
cpu0_DTLB RFO          ACCESS:          0  HIT:          0  MISS:          0  iACCESS:          0  iHIT:          0  iMISS:          0  dACCESS:          0  dHIT:          0  dMISS:          0  itACCESS:          0  itHIT:          0  itMISS:          0  dtACCESS:          0  dtHIT:          0  dtMISS:          0
cpu0_DTLB PREFETCH     ACCESS:          0  HIT:          0  MISS:          0  iACCESS:          0  iHIT:          0  iMISS:          0  dACCESS:          0  dHIT:          0  dMISS:          0  itACCESS:          0  itHIT:          0  itMISS:          0  dtACCESS:          0  dtHIT:          0  dtMISS:          0
cpu0_DTLB WRITE        ACCESS:          0  HIT:          0  MISS:          0  iACCESS:          0  iHIT:          0  iMISS:          0  dACCESS:          0  dHIT:          0  dMISS:          0  itACCESS:          0  itHIT:          0  itMISS:          0  dtACCESS:          0  dtHIT:          0  dtMISS:          0
cpu0_DTLB TRANSLATION  ACCESS:          0  HIT:          0  MISS:          0  iACCESS:          0  iHIT:          0  iMISS:          0  dACCESS:          0  dHIT:          0  dMISS:          0  itACCESS:          0  itHIT:          0  itMISS:          0  dtACCESS:          0  dtHIT:          0  dtMISS:          0
cpu0_DTLB PREFETCH  REQUESTED:          0  ISSUED:          0  CROSSED:          0  USEFUL:          0  USELESS:          0
cpu0_DTLB AVERAGE iMISS LATENCY: 0 cycles
cpu0_DTLB AVERAGE dMISS LATENCY: 9.95023 cycles
cpu0_DTLB AVERAGE itMISS LATENCY: 0 cycles
cpu0_DTLB AVERAGE dtMISS LATENCY: 0 cycles
cpu0_DTLB PAGE CROSSINGS (TLB HIT):         0 
cpu0_DTLB PAGE CROSSINGS (TLB MISS):         0 
cpu0_DTLB AVERAGE MISS LATENCY: 9.95023 cycles
cpu0_STLB TOTAL       ACCESS:    1626636  HIT:    1494918  MISS:     131718  iACCESS:     388024  iHIT:     382180  iMISS:       5844  dACCESS:    1238612  dHIT:    1112738  dMISS:     125874  itACCESS:          0  itHIT:          0  itMISS:          0  dtACCESS:          0  dtHIT:          0  dtMISS:          0
cpu0_STLB LOAD         ACCESS:    1626636  HIT:    1494918  MISS:     131718  iACCESS:     388024  iHIT:     382180  iMISS:       5844  dACCESS:    1238612  dHIT:    1112738  dMISS:     125874  itACCESS:          0  itHIT:          0  itMISS:          0  dtACCESS:          0  dtHIT:          0  dtMISS:          0
cpu0_STLB RFO          ACCESS:          0  HIT:          0  MISS:          0  iACCESS:          0  iHIT:          0  iMISS:          0  dACCESS:          0  dHIT:          0  dMISS:          0  itACCESS:          0  itHIT:          0  itMISS:          0  dtACCESS:          0  dtHIT:          0  dtMISS:          0
cpu0_STLB PREFETCH     ACCESS:          0  HIT:          0  MISS:          0  iACCESS:          0  iHIT:          0  iMISS:          0  dACCESS:          0  dHIT:          0  dMISS:          0  itACCESS:          0  itHIT:          0  itMISS:          0  dtACCESS:          0  dtHIT:          0  dtMISS:          0
cpu0_STLB WRITE        ACCESS:          0  HIT:          0  MISS:          0  iACCESS:          0  iHIT:          0  iMISS:          0  dACCESS:          0  dHIT:          0  dMISS:          0  itACCESS:          0  itHIT:          0  itMISS:          0  dtACCESS:          0  dtHIT:          0  dtMISS:          0
cpu0_STLB TRANSLATION  ACCESS:          0  HIT:          0  MISS:          0  iACCESS:          0  iHIT:          0  iMISS:          0  dACCESS:          0  dHIT:          0  dMISS:          0  itACCESS:          0  itHIT:          0  itMISS:          0  dtACCESS:          0  dtHIT:          0  dtMISS:          0
cpu0_STLB PREFETCH  REQUESTED:          0  ISSUED:          0  CROSSED:          0  USEFUL:          0  USELESS:          0
cpu0_STLB AVERAGE iMISS LATENCY: 4.89011 cycles
cpu0_STLB AVERAGE dMISS LATENCY: 83.0781 cycles
cpu0_STLB AVERAGE itMISS LATENCY: 0 cycles
cpu0_STLB AVERAGE dtMISS LATENCY: 0 cycles
cpu0_STLB PAGE CROSSINGS (TLB HIT):         0 
cpu0_STLB PAGE CROSSINGS (TLB MISS):         0 
cpu0_STLB AVERAGE MISS LATENCY: 87.9682 cycles
cpu0_L1D TOTAL       ACCESS:   41497850  HIT:   37983912  MISS:    3513938  iACCESS:          0  iHIT:          0  iMISS:          0  dACCESS:   41295579  dHIT:   37972052  dMISS:    3323527  itACCESS:       7008  itHIT:        677  itMISS:       6331  dtACCESS:     195263  dtHIT:      11183  dtMISS:     184080
cpu0_L1D LOAD         ACCESS:   18953114  HIT:   17438508  MISS:    1514606  iACCESS:          0  iHIT:          0  iMISS:          0  dACCESS:   18953114  dHIT:   17438508  dMISS:    1514606  itACCESS:          0  itHIT:          0  itMISS:          0  dtACCESS:          0  dtHIT:          0  dtMISS:          0
cpu0_L1D RFO          ACCESS:          0  HIT:          0  MISS:          0  iACCESS:          0  iHIT:          0  iMISS:          0  dACCESS:          0  dHIT:          0  dMISS:          0  itACCESS:          0  itHIT:          0  itMISS:          0  dtACCESS:          0  dtHIT:          0  dtMISS:          0
cpu0_L1D PREFETCH     ACCESS:   12208002  HIT:   10843827  MISS:    1364175  iACCESS:          0  iHIT:          0  iMISS:          0  dACCESS:   12208002  dHIT:   10843827  dMISS:    1364175  itACCESS:          0  itHIT:          0  itMISS:          0  dtACCESS:          0  dtHIT:          0  dtMISS:          0
cpu0_L1D WRITE        ACCESS:   10134463  HIT:    9689717  MISS:     444746  iACCESS:          0  iHIT:          0  iMISS:          0  dACCESS:   10134463  dHIT:    9689717  dMISS:     444746  itACCESS:          0  itHIT:          0  itMISS:          0  dtACCESS:          0  dtHIT:          0  dtMISS:          0
cpu0_L1D TRANSLATION  ACCESS:     202271  HIT:      11860  MISS:     190411  iACCESS:          0  iHIT:          0  iMISS:          0  dACCESS:          0  dHIT:          0  dMISS:          0  itACCESS:       7008  itHIT:        677  itMISS:       6331  dtACCESS:     195263  dtHIT:      11183  dtMISS:     184080
cpu0_L1D PREFETCH  REQUESTED:   18953114  ISSUED:   17066428  CROSSED:          0  USEFUL:     307318  USELESS:     703532
cpu0_L1D AVERAGE iMISS LATENCY: 0 cycles
cpu0_L1D AVERAGE dMISS LATENCY: 28.2826 cycles
cpu0_L1D AVERAGE itMISS LATENCY: 0.163858 cycles
cpu0_L1D AVERAGE dtMISS LATENCY: 2.40275 cycles
cpu0_L1D PAGE CROSSINGS (TLB HIT):         0 
cpu0_L1D PAGE CROSSINGS (TLB MISS):         0 
cpu0_L1D AVERAGE MISS LATENCY: 30.8492 cycles
cpu0_L2C TOTAL       ACCESS:    6978155  HIT:    2630319  MISS:    4347836  iACCESS:    3322280  iHIT:    1487018  iMISS:    1835262  dACCESS:    3481259  dHIT:    1020154  dMISS:    2461105  itACCESS:       6331  itHIT:       2140  itMISS:       4191  dtACCESS:     168285  dtHIT:     121007  dtMISS:      47278
cpu0_L2C LOAD         ACCESS:    1730423  HIT:     584082  MISS:    1146341  iACCESS:     793712  iHIT:     334238  iMISS:     459474  dACCESS:     936711  dHIT:     249844  dMISS:     686867  itACCESS:          0  itHIT:          0  itMISS:          0  dtACCESS:          0  dtHIT:          0  dtMISS:          0
cpu0_L2C RFO          ACCESS:     155670  HIT:      33064  MISS:     122606  iACCESS:          0  iHIT:          0  iMISS:          0  dACCESS:     155670  dHIT:      33064  dMISS:     122606  itACCESS:          0  itHIT:          0  itMISS:          0  dtACCESS:          0  dtHIT:          0  dtMISS:          0
cpu0_L2C PREFETCH     ACCESS:    4633740  HIT:    1761901  MISS:    2871839  iACCESS:    2528568  iHIT:    1152780  iMISS:    1375788  dACCESS:    2105172  dHIT:     609121  dMISS:    1496051  itACCESS:          0  itHIT:          0  itMISS:          0  dtACCESS:          0  dtHIT:          0  dtMISS:          0
cpu0_L2C WRITE        ACCESS:     283706  HIT:     128125  MISS:     155581  iACCESS:          0  iHIT:          0  iMISS:          0  dACCESS:     283706  dHIT:     128125  dMISS:     155581  itACCESS:          0  itHIT:          0  itMISS:          0  dtACCESS:          0  dtHIT:          0  dtMISS:          0
cpu0_L2C TRANSLATION  ACCESS:     174616  HIT:     123147  MISS:      51469  iACCESS:          0  iHIT:          0  iMISS:          0  dACCESS:          0  dHIT:          0  dMISS:          0  itACCESS:       6331  itHIT:       2140  itMISS:       4191  dtACCESS:     168285  dtHIT:     121007  dtMISS:      47278
cpu0_L2C PREFETCH  REQUESTED:    1378044  ISSUED:    1378044  CROSSED:          0  USEFUL:     352572  USELESS:     326301
cpu0_L2C AVERAGE iMISS LATENCY: 12.6768 cycles
cpu0_L2C AVERAGE dMISS LATENCY: 24.5528 cycles
cpu0_L2C AVERAGE itMISS LATENCY: 0.118324 cycles
cpu0_L2C AVERAGE dtMISS LATENCY: 1.58057 cycles
cpu0_L2C PAGE CROSSINGS (TLB HIT):         0 
cpu0_L2C PAGE CROSSINGS (TLB MISS):         0 
cpu0_L2C AVERAGE MISS LATENCY: 38.9284 cycles
LLC TOTAL       ACCESS:    4309452  HIT:    3750875  MISS:     558577  iACCESS:    1792035  iHIT:    1654364  iMISS:     137671  dACCESS:    2465948  dHIT:    2081557  dMISS:     384391  itACCESS:       4191  itHIT:       1704  itMISS:       2487  dtACCESS:      47278  dtHIT:      13250  dtMISS:      34028
LLC LOAD         ACCESS:    1144596  HIT:    1016666  MISS:     127930  iACCESS:     457956  iHIT:     426334  iMISS:      31622  dACCESS:     686640  dHIT:     590332  dMISS:      96308  itACCESS:          0  itHIT:          0  itMISS:          0  dtACCESS:          0  dtHIT:          0  dtMISS:          0
LLC RFO          ACCESS:     122571  HIT:      88367  MISS:      34204  iACCESS:          0  iHIT:          0  iMISS:          0  dACCESS:     122571  dHIT:      88367  dMISS:      34204  itACCESS:          0  itHIT:          0  itMISS:          0  dtACCESS:          0  dtHIT:          0  dtMISS:          0
LLC PREFETCH     ACCESS:    2791300  HIT:    2433305  MISS:     357995  iACCESS:    1334079  iHIT:    1228030  iMISS:     106049  dACCESS:    1457221  dHIT:    1205275  dMISS:     251946  itACCESS:          0  itHIT:          0  itMISS:          0  dtACCESS:          0  dtHIT:          0  dtMISS:          0
LLC WRITE        ACCESS:     199516  HIT:     197583  MISS:       1933  iACCESS:          0  iHIT:          0  iMISS:          0  dACCESS:     199516  dHIT:     197583  dMISS:       1933  itACCESS:          0  itHIT:          0  itMISS:          0  dtACCESS:          0  dtHIT:          0  dtMISS:          0
LLC TRANSLATION  ACCESS:      51469  HIT:      14954  MISS:      36515  iACCESS:          0  iHIT:          0  iMISS:          0  dACCESS:          0  dHIT:          0  dMISS:          0  itACCESS:       4191  itHIT:       1704  itMISS:       2487  dtACCESS:      47278  dtHIT:      13250  dtMISS:      34028
LLC PREFETCH  REQUESTED:          0  ISSUED:          0  CROSSED:          0  USEFUL:          0  USELESS:          0
LLC AVERAGE iMISS LATENCY: 36.8688 cycles
LLC AVERAGE dMISS LATENCY: 112.706 cycles
LLC AVERAGE itMISS LATENCY: 0.774286 cycles
LLC AVERAGE dtMISS LATENCY: 10.6381 cycles
LLC PAGE CROSSINGS (TLB HIT):         0 
LLC PAGE CROSSINGS (TLB MISS):         0 
LLC AVERAGE MISS LATENCY: 160.987 cycles

PageTableWalker TOTAL       ACCESS:      66891  
PageTableWalker AVERAGE LATENCY: 4.72424 cycles
PageTableWalker TOTAL LATENCY: 316009 cycles

DRAM Statistics
Channel 0
 RQ ROW_BUFFER_HIT:     142272
  ROW_BUFFER_MISS:     414345
 AVG DBUS CONGESTED CYCLE:    3.64258
 WQ ROW_BUFFER_HIT:      14473
  ROW_BUFFER_MISS:      26567  FULL:          0

