last_page:0x200000000000000
VMEM_RES_CAP:0x100000
PAGE_SIZE:4096
LOG2_PAGE_SIZE:12
LOG2_PAGE_TABLE_SIZE:9
page_table_levels:5
WARNING: physical memory size is smaller than virtual memory size
FDiP enabled with aggresivity 16

*** ChampSim Multicore Out-of-Order Simulator ***

Warmup Instructions: 50000000
Simulation Instructions: 100000000
Number of CPUs: 1
Small page size: 4096
Large page size: 2097152

CPU 0 Bimodal branch predictor
Basic BTB sets: 1024 ways: 8 indirect buffer size: 4096 RAS size: 64
Instruction page size distrubution: 0
Loading instruction page size distribution from /home/bsc/bsc018186/scratch/itp_asplos25_AE/dump/srv626_ap.pdst
Data page size distrubution: 0
Loading data page size distribution from /home/bsc/bsc018186/scratch/itp_asplos25_AE/dump/srv626_ap.pdst
cpu0_L2C IP-based stride prefetcher
cpu0_L2C is using PTP replacement policy:
	TLB_STRESS_THRESHOLD:0
	PTE_EVICTION_RATIO:0
cpu0_L1D next line prefetcher
CHiRPing...
cpu0_L1I next line prefetcher
Off-chip DRAM Size: 4 GiB Channels: 1 Width: 64-bit Data Rate: 3200 MT/s
Heartbeat CPU 0 instructions: 10000003 cycles: 2500208 heartbeat IPC: 3.99967 cumulative IPC: 3.99967 (Simulation time: 0 hr 0 min 37 sec) 
Heartbeat CPU 0 instructions: 20000003 cycles: 5000234 heartbeat IPC: 3.99996 cumulative IPC: 3.99982 (Simulation time: 0 hr 1 min 16 sec) 
Heartbeat CPU 0 instructions: 30000003 cycles: 7500234 heartbeat IPC: 4 cumulative IPC: 3.99988 (Simulation time: 0 hr 1 min 56 sec) 
Heartbeat CPU 0 instructions: 40000000 cycles: 10000279 heartbeat IPC: 3.99993 cumulative IPC: 3.99989 (Simulation time: 0 hr 2 min 36 sec) 
Heartbeat CPU 0 instructions: 50000000 cycles: 12500382 heartbeat IPC: 3.99984 cumulative IPC: 3.99988 (Simulation time: 0 hr 3 min 17 sec) 
Warmup finished CPU 0 instructions: 50000000 cycles: 12500383 cumulative IPC: 3.99988 (Simulation time: 0 hr 3 min 17 sec) 

Warmup complete CPU 0 instructions: 50000000 cycles: 12500383 (Simulation time: 0 hr 3 min 17 sec) 

Heartbeat CPU 0 instructions: 60000002 cycles: 26073433 heartbeat IPC: 0.736755 cumulative IPC: 0.736755 (Simulation time: 0 hr 4 min 19 sec) 
Heartbeat CPU 0 instructions: 70000002 cycles: 40478666 heartbeat IPC: 0.694193 cumulative IPC: 0.714841 (Simulation time: 0 hr 5 min 23 sec) 
Heartbeat CPU 0 instructions: 80000003 cycles: 54473998 heartbeat IPC: 0.714525 cumulative IPC: 0.714735 (Simulation time: 0 hr 6 min 27 sec) 
Heartbeat CPU 0 instructions: 90000001 cycles: 67983369 heartbeat IPC: 0.740227 cumulative IPC: 0.720942 (Simulation time: 0 hr 7 min 30 sec) 
Heartbeat CPU 0 instructions: 100000004 cycles: 82207402 heartbeat IPC: 0.703036 cumulative IPC: 0.717288 (Simulation time: 0 hr 8 min 33 sec) 
*** Reached end of trace: /gpfs/projects/bsc18/MN4/bsc18/romol/ChampSim/traces/qualcomm_srv/srv626_ap.champsimtrace.xz
Heartbeat CPU 0 instructions: 110000000 cycles: 95945900 heartbeat IPC: 0.727882 cumulative IPC: 0.719033 (Simulation time: 0 hr 9 min 34 sec) 
Heartbeat CPU 0 instructions: 120000000 cycles: 110142204 heartbeat IPC: 0.704409 cumulative IPC: 0.716906 (Simulation time: 0 hr 10 min 35 sec) 
Heartbeat CPU 0 instructions: 130000001 cycles: 123942780 heartbeat IPC: 0.724608 cumulative IPC: 0.71786 (Simulation time: 0 hr 11 min 34 sec) 
Heartbeat CPU 0 instructions: 140000004 cycles: 137571954 heartbeat IPC: 0.733721 cumulative IPC: 0.719589 (Simulation time: 0 hr 12 min 33 sec) 
Heartbeat CPU 0 instructions: 150000004 cycles: 151228381 heartbeat IPC: 0.732256 cumulative IPC: 0.720836 (Simulation time: 0 hr 13 min 32 sec) 
Simulation finished CPU 0 instructions: 100000004 cycles: 138727999 cumulative IPC: 0.720836 (Simulation time: 0 hr 13 min 32 sec) 

Simulation complete CPU 0 instructions: 100000004 cycles: 138727999 (Simulation time: 0 hr 13 min 32 sec) 


ChampSim completed all CPUs

Saving instructions large page distribution to /home/bsc/bsc018186/scratch/itp_asplos25_AE/dump/srv626_ap.pdst...
Saving data large page distribution to /home/bsc/bsc018186/scratch/itp_asplos25_AE/dump/srv626_ap.pdst...
=== Simulation ===
CPU 0 runs /gpfs/projects/bsc18/MN4/bsc18/romol/ChampSim/traces/qualcomm_srv/srv626_ap.champsimtrace.xz

Region of Interest Statistics

CPU 0 cumulative IPC: 0.720836 instructions: 100000004 cycles: 138727999
CPU 0 Branch Prediction Accuracy: 83.4866% MPKI: 29.6305 Average ROB Occupancy at Mispredict: 12.3281
Branch type MPKI
BRANCH_DIRECT_JUMP: 0.94594
BRANCH_INDIRECT: 15.3924
BRANCH_CONDITIONAL: 9.68539
BRANCH_DIRECT_CALL: 1.80388
BRANCH_INDIRECT_CALL: 0.49011
BRANCH_RETURN: 1.31273

Instructions large pages: 0
Instructions small pages: 9702
Large page distribution for instructions: 0%

Data large pages: 0
Data small pages: 8873
Large page distribution for data: 0%

cpu0_L1I TOTAL       ACCESS:   35140512  HIT:   26538426  MISS:    8602086  iACCESS:   35140512  iHIT:   26538426  iMISS:    8602086  dACCESS:          0  dHIT:          0  dMISS:          0  itACCESS:          0  itHIT:          0  itMISS:          0  dtACCESS:          0  dtHIT:          0  dtMISS:          0
cpu0_L1I LOAD         ACCESS:   10251627  HIT:    7839400  MISS:    2412227  iACCESS:   10251627  iHIT:    7839400  iMISS:    2412227  dACCESS:          0  dHIT:          0  dMISS:          0  itACCESS:          0  itHIT:          0  itMISS:          0  dtACCESS:          0  dtHIT:          0  dtMISS:          0
cpu0_L1I RFO          ACCESS:          0  HIT:          0  MISS:          0  iACCESS:          0  iHIT:          0  iMISS:          0  dACCESS:          0  dHIT:          0  dMISS:          0  itACCESS:          0  itHIT:          0  itMISS:          0  dtACCESS:          0  dtHIT:          0  dtMISS:          0
cpu0_L1I PREFETCH     ACCESS:   24888885  HIT:   18699026  MISS:    6189859  iACCESS:   24888885  iHIT:   18699026  iMISS:    6189859  dACCESS:          0  dHIT:          0  dMISS:          0  itACCESS:          0  itHIT:          0  itMISS:          0  dtACCESS:          0  dtHIT:          0  dtMISS:          0
cpu0_L1I WRITE        ACCESS:          0  HIT:          0  MISS:          0  iACCESS:          0  iHIT:          0  iMISS:          0  dACCESS:          0  dHIT:          0  dMISS:          0  itACCESS:          0  itHIT:          0  itMISS:          0  dtACCESS:          0  dtHIT:          0  dtMISS:          0
cpu0_L1I TRANSLATION  ACCESS:          0  HIT:          0  MISS:          0  iACCESS:          0  iHIT:          0  iMISS:          0  dACCESS:          0  dHIT:          0  dMISS:          0  itACCESS:          0  itHIT:          0  itMISS:          0  dtACCESS:          0  dtHIT:          0  dtMISS:          0
cpu0_L1I PREFETCH  REQUESTED:   27126285  ISSUED:   27122095  CROSSED:          0  USEFUL:    1934890  USELESS:     633501
cpu0_L1I AVERAGE iMISS LATENCY: 13.5666 cycles
cpu0_L1I AVERAGE dMISS LATENCY: 0 cycles
cpu0_L1I AVERAGE itMISS LATENCY: 0 cycles
cpu0_L1I AVERAGE dtMISS LATENCY: 0 cycles
cpu0_L1I PAGE CROSSINGS (TLB HIT):         0 
cpu0_L1I PAGE CROSSINGS (TLB MISS):         0 
cpu0_L1I AVERAGE MISS LATENCY: 13.5666 cycles
cpu0_ITLB TOTAL       ACCESS:   29022664  HIT:   27036539  MISS:    1986125  iACCESS:   29022664  iHIT:   27036539  iMISS:    1986125  dACCESS:          0  dHIT:          0  dMISS:          0  itACCESS:          0  itHIT:          0  itMISS:          0  dtACCESS:          0  dtHIT:          0  dtMISS:          0
cpu0_ITLB LOAD         ACCESS:   29022664  HIT:   27036539  MISS:    1986125  iACCESS:   29022664  iHIT:   27036539  iMISS:    1986125  dACCESS:          0  dHIT:          0  dMISS:          0  itACCESS:          0  itHIT:          0  itMISS:          0  dtACCESS:          0  dtHIT:          0  dtMISS:          0
cpu0_ITLB RFO          ACCESS:          0  HIT:          0  MISS:          0  iACCESS:          0  iHIT:          0  iMISS:          0  dACCESS:          0  dHIT:          0  dMISS:          0  itACCESS:          0  itHIT:          0  itMISS:          0  dtACCESS:          0  dtHIT:          0  dtMISS:          0
cpu0_ITLB PREFETCH     ACCESS:          0  HIT:          0  MISS:          0  iACCESS:          0  iHIT:          0  iMISS:          0  dACCESS:          0  dHIT:          0  dMISS:          0  itACCESS:          0  itHIT:          0  itMISS:          0  dtACCESS:          0  dtHIT:          0  dtMISS:          0
cpu0_ITLB WRITE        ACCESS:          0  HIT:          0  MISS:          0  iACCESS:          0  iHIT:          0  iMISS:          0  dACCESS:          0  dHIT:          0  dMISS:          0  itACCESS:          0  itHIT:          0  itMISS:          0  dtACCESS:          0  dtHIT:          0  dtMISS:          0
cpu0_ITLB TRANSLATION  ACCESS:          0  HIT:          0  MISS:          0  iACCESS:          0  iHIT:          0  iMISS:          0  dACCESS:          0  dHIT:          0  dMISS:          0  itACCESS:          0  itHIT:          0  itMISS:          0  dtACCESS:          0  dtHIT:          0  dtMISS:          0
cpu0_ITLB PREFETCH  REQUESTED:          0  ISSUED:          0  CROSSED:          0  USEFUL:     325377  USELESS:      61874
cpu0_ITLB AVERAGE iMISS LATENCY: 2.57851 cycles
cpu0_ITLB AVERAGE dMISS LATENCY: 0 cycles
cpu0_ITLB AVERAGE itMISS LATENCY: 0 cycles
cpu0_ITLB AVERAGE dtMISS LATENCY: 0 cycles
cpu0_ITLB PAGE CROSSINGS (TLB HIT):         0 
cpu0_ITLB PAGE CROSSINGS (TLB MISS):         0 
cpu0_ITLB AVERAGE MISS LATENCY: 2.57851 cycles
cpu0_DTLB TOTAL       ACCESS:   27699531  HIT:   25664457  MISS:    2035074  iACCESS:          0  iHIT:          0  iMISS:          0  dACCESS:   27699531  dHIT:   25664457  dMISS:    2035074  itACCESS:          0  itHIT:          0  itMISS:          0  dtACCESS:          0  dtHIT:          0  dtMISS:          0
cpu0_DTLB LOAD         ACCESS:   27699531  HIT:   25664457  MISS:    2035074  iACCESS:          0  iHIT:          0  iMISS:          0  dACCESS:   27699531  dHIT:   25664457  dMISS:    2035074  itACCESS:          0  itHIT:          0  itMISS:          0  dtACCESS:          0  dtHIT:          0  dtMISS:          0
cpu0_DTLB RFO          ACCESS:          0  HIT:          0  MISS:          0  iACCESS:          0  iHIT:          0  iMISS:          0  dACCESS:          0  dHIT:          0  dMISS:          0  itACCESS:          0  itHIT:          0  itMISS:          0  dtACCESS:          0  dtHIT:          0  dtMISS:          0
cpu0_DTLB PREFETCH     ACCESS:          0  HIT:          0  MISS:          0  iACCESS:          0  iHIT:          0  iMISS:          0  dACCESS:          0  dHIT:          0  dMISS:          0  itACCESS:          0  itHIT:          0  itMISS:          0  dtACCESS:          0  dtHIT:          0  dtMISS:          0
cpu0_DTLB WRITE        ACCESS:          0  HIT:          0  MISS:          0  iACCESS:          0  iHIT:          0  iMISS:          0  dACCESS:          0  dHIT:          0  dMISS:          0  itACCESS:          0  itHIT:          0  itMISS:          0  dtACCESS:          0  dtHIT:          0  dtMISS:          0
cpu0_DTLB TRANSLATION  ACCESS:          0  HIT:          0  MISS:          0  iACCESS:          0  iHIT:          0  iMISS:          0  dACCESS:          0  dHIT:          0  dMISS:          0  itACCESS:          0  itHIT:          0  itMISS:          0  dtACCESS:          0  dtHIT:          0  dtMISS:          0
cpu0_DTLB PREFETCH  REQUESTED:          0  ISSUED:          0  CROSSED:          0  USEFUL:          0  USELESS:          0
cpu0_DTLB AVERAGE iMISS LATENCY: 0 cycles
cpu0_DTLB AVERAGE dMISS LATENCY: 8.42781 cycles
cpu0_DTLB AVERAGE itMISS LATENCY: 0 cycles
cpu0_DTLB AVERAGE dtMISS LATENCY: 0 cycles
cpu0_DTLB PAGE CROSSINGS (TLB HIT):         0 
cpu0_DTLB PAGE CROSSINGS (TLB MISS):         0 
cpu0_DTLB AVERAGE MISS LATENCY: 8.42781 cycles
cpu0_STLB TOTAL       ACCESS:    1639578  HIT:    1480874  MISS:     158704  iACCESS:     387449  iHIT:     332220  iMISS:      55229  dACCESS:    1252129  dHIT:    1148654  dMISS:     103475  itACCESS:          0  itHIT:          0  itMISS:          0  dtACCESS:          0  dtHIT:          0  dtMISS:          0
cpu0_STLB LOAD         ACCESS:    1639578  HIT:    1480874  MISS:     158704  iACCESS:     387449  iHIT:     332220  iMISS:      55229  dACCESS:    1252129  dHIT:    1148654  dMISS:     103475  itACCESS:          0  itHIT:          0  itMISS:          0  dtACCESS:          0  dtHIT:          0  dtMISS:          0
cpu0_STLB RFO          ACCESS:          0  HIT:          0  MISS:          0  iACCESS:          0  iHIT:          0  iMISS:          0  dACCESS:          0  dHIT:          0  dMISS:          0  itACCESS:          0  itHIT:          0  itMISS:          0  dtACCESS:          0  dtHIT:          0  dtMISS:          0
cpu0_STLB PREFETCH     ACCESS:          0  HIT:          0  MISS:          0  iACCESS:          0  iHIT:          0  iMISS:          0  dACCESS:          0  dHIT:          0  dMISS:          0  itACCESS:          0  itHIT:          0  itMISS:          0  dtACCESS:          0  dtHIT:          0  dtMISS:          0
cpu0_STLB WRITE        ACCESS:          0  HIT:          0  MISS:          0  iACCESS:          0  iHIT:          0  iMISS:          0  dACCESS:          0  dHIT:          0  dMISS:          0  itACCESS:          0  itHIT:          0  itMISS:          0  dtACCESS:          0  dtHIT:          0  dtMISS:          0
cpu0_STLB TRANSLATION  ACCESS:          0  HIT:          0  MISS:          0  iACCESS:          0  iHIT:          0  iMISS:          0  dACCESS:          0  dHIT:          0  dMISS:          0  itACCESS:          0  itHIT:          0  itMISS:          0  dtACCESS:          0  dtHIT:          0  dtMISS:          0
cpu0_STLB PREFETCH  REQUESTED:          0  ISSUED:          0  CROSSED:          0  USEFUL:          0  USELESS:          0
cpu0_STLB AVERAGE iMISS LATENCY: 13.0154 cycles
cpu0_STLB AVERAGE dMISS LATENCY: 45.2541 cycles
cpu0_STLB AVERAGE itMISS LATENCY: 0 cycles
cpu0_STLB AVERAGE dtMISS LATENCY: 0 cycles
cpu0_STLB PAGE CROSSINGS (TLB HIT):         0 
cpu0_STLB PAGE CROSSINGS (TLB MISS):         0 
cpu0_STLB AVERAGE MISS LATENCY: 58.2695 cycles
cpu0_L1D TOTAL       ACCESS:   41464010  HIT:   37888105  MISS:    3575905  iACCESS:          0  iHIT:          0  iMISS:          0  dACCESS:   41243679  dHIT:   37869301  dMISS:    3374378  itACCESS:      60032  itHIT:       8814  itMISS:      51218  dtACCESS:     160299  dtHIT:       9990  dtMISS:     150309
cpu0_L1D LOAD         ACCESS:   18942262  HIT:   17399996  MISS:    1542266  iACCESS:          0  iHIT:          0  iMISS:          0  dACCESS:   18942262  dHIT:   17399996  dMISS:    1542266  itACCESS:          0  itHIT:          0  itMISS:          0  dtACCESS:          0  dtHIT:          0  dtMISS:          0
cpu0_L1D RFO          ACCESS:          0  HIT:          0  MISS:          0  iACCESS:          0  iHIT:          0  iMISS:          0  dACCESS:          0  dHIT:          0  dMISS:          0  itACCESS:          0  itHIT:          0  itMISS:          0  dtACCESS:          0  dtHIT:          0  dtMISS:          0
cpu0_L1D PREFETCH     ACCESS:   12171945  HIT:   10777905  MISS:    1394040  iACCESS:          0  iHIT:          0  iMISS:          0  dACCESS:   12171945  dHIT:   10777905  dMISS:    1394040  itACCESS:          0  itHIT:          0  itMISS:          0  dtACCESS:          0  dtHIT:          0  dtMISS:          0
cpu0_L1D WRITE        ACCESS:   10129472  HIT:    9691400  MISS:     438072  iACCESS:          0  iHIT:          0  iMISS:          0  dACCESS:   10129472  dHIT:    9691400  dMISS:     438072  itACCESS:          0  itHIT:          0  itMISS:          0  dtACCESS:          0  dtHIT:          0  dtMISS:          0
cpu0_L1D TRANSLATION  ACCESS:     220331  HIT:      18804  MISS:     201527  iACCESS:          0  iHIT:          0  iMISS:          0  dACCESS:          0  dHIT:          0  dMISS:          0  itACCESS:      60032  itHIT:       8814  itMISS:      51218  dtACCESS:     160299  dtHIT:       9990  dtMISS:     150309
cpu0_L1D PREFETCH  REQUESTED:   18942262  ISSUED:   16969598  CROSSED:          0  USEFUL:     308202  USELESS:     708457
cpu0_L1D AVERAGE iMISS LATENCY: 0 cycles
cpu0_L1D AVERAGE dMISS LATENCY: 34.2289 cycles
cpu0_L1D AVERAGE itMISS LATENCY: 0.445914 cycles
cpu0_L1D AVERAGE dtMISS LATENCY: 1.39443 cycles
cpu0_L1D PAGE CROSSINGS (TLB HIT):         0 
cpu0_L1D PAGE CROSSINGS (TLB MISS):         0 
cpu0_L1D AVERAGE MISS LATENCY: 36.0692 cycles
cpu0_L2C TOTAL       ACCESS:    7015421  HIT:    1223939  MISS:    5791482  iACCESS:    3319703  iHIT:     683517  iMISS:    2636186  dACCESS:    3507439  dHIT:     384497  dMISS:    3122942  itACCESS:      51064  itHIT:      42161  itMISS:       8903  dtACCESS:     137215  dtHIT:     113764  dtMISS:      23451
cpu0_L2C LOAD         ACCESS:    1734054  HIT:     140164  MISS:    1593890  iACCESS:     790717  iHIT:      97827  iMISS:     692890  dACCESS:     943337  dHIT:      42337  dMISS:     901000  itACCESS:          0  itHIT:          0  itMISS:          0  dtACCESS:          0  dtHIT:          0  dtMISS:          0
cpu0_L2C RFO          ACCESS:     155515  HIT:       8580  MISS:     146935  iACCESS:          0  iHIT:          0  iMISS:          0  dACCESS:     155515  dHIT:       8580  dMISS:     146935  itACCESS:          0  itHIT:          0  itMISS:          0  dtACCESS:          0  dtHIT:          0  dtMISS:          0
cpu0_L2C PREFETCH     ACCESS:    4650369  HIT:     856169  MISS:    3794200  iACCESS:    2528986  iHIT:     585690  iMISS:    1943296  dACCESS:    2121383  dHIT:     270479  dMISS:    1850904  itACCESS:          0  itHIT:          0  itMISS:          0  dtACCESS:          0  dtHIT:          0  dtMISS:          0
cpu0_L2C WRITE        ACCESS:     287204  HIT:      63101  MISS:     224103  iACCESS:          0  iHIT:          0  iMISS:          0  dACCESS:     287204  dHIT:      63101  dMISS:     224103  itACCESS:          0  itHIT:          0  itMISS:          0  dtACCESS:          0  dtHIT:          0  dtMISS:          0
cpu0_L2C TRANSLATION  ACCESS:     188279  HIT:     155925  MISS:      32354  iACCESS:          0  iHIT:          0  iMISS:          0  dACCESS:          0  dHIT:          0  dMISS:          0  itACCESS:      51064  itHIT:      42161  itMISS:       8903  dtACCESS:     137215  dtHIT:     113764  dtMISS:      23451
cpu0_L2C PREFETCH  REQUESTED:    1391952  ISSUED:    1391952  CROSSED:          0  USEFUL:     426406  USELESS:     391717
cpu0_L2C AVERAGE iMISS LATENCY: 14.7758 cycles
cpu0_L2C AVERAGE dMISS LATENCY: 24.3435 cycles
cpu0_L2C AVERAGE itMISS LATENCY: 0.194266 cycles
cpu0_L2C AVERAGE dtMISS LATENCY: 0.642546 cycles
cpu0_L2C PAGE CROSSINGS (TLB HIT):         0 
cpu0_L2C PAGE CROSSINGS (TLB MISS):         0 
cpu0_L2C AVERAGE MISS LATENCY: 39.9561 cycles
LLC TOTAL       ACCESS:    5715687  HIT:    4920333  MISS:     795354  iACCESS:    2578916  iHIT:    2333243  iMISS:     245673  dACCESS:    3104417  dHIT:    2578325  dMISS:     526092  itACCESS:       8903  itHIT:       3429  itMISS:       5474  dtACCESS:      23451  dtHIT:       5336  dtMISS:      18115
LLC LOAD         ACCESS:    1591654  HIT:    1405333  MISS:     186321  iACCESS:     691063  iHIT:     636786  iMISS:      54277  dACCESS:     900591  dHIT:     768547  dMISS:     132044  itACCESS:          0  itHIT:          0  itMISS:          0  dtACCESS:          0  dtHIT:          0  dtMISS:          0
LLC RFO          ACCESS:     146930  HIT:     105508  MISS:      41422  iACCESS:          0  iHIT:          0  iMISS:          0  dACCESS:     146930  dHIT:     105508  dMISS:      41422  itACCESS:          0  itHIT:          0  itMISS:          0  dtACCESS:          0  dtHIT:          0  dtMISS:          0
LLC PREFETCH     ACCESS:    3684499  HIT:    3140477  MISS:     544022  iACCESS:    1887853  iHIT:    1696457  iMISS:     191396  dACCESS:    1796646  dHIT:    1444020  dMISS:     352626  itACCESS:          0  itHIT:          0  itMISS:          0  dtACCESS:          0  dtHIT:          0  dtMISS:          0
LLC WRITE        ACCESS:     260250  HIT:     260250  MISS:          0  iACCESS:          0  iHIT:          0  iMISS:          0  dACCESS:     260250  dHIT:     260250  dMISS:          0  itACCESS:          0  itHIT:          0  itMISS:          0  dtACCESS:          0  dtHIT:          0  dtMISS:          0
LLC TRANSLATION  ACCESS:      32354  HIT:       8765  MISS:      23589  iACCESS:          0  iHIT:          0  iMISS:          0  dACCESS:          0  dHIT:          0  dMISS:          0  itACCESS:       8903  itHIT:       3429  itMISS:       5474  dtACCESS:      23451  dtHIT:       5336  dtMISS:      18115
LLC PREFETCH  REQUESTED:          0  ISSUED:          0  CROSSED:          0  USEFUL:          0  USELESS:          0
LLC AVERAGE iMISS LATENCY: 45.0061 cycles
LLC AVERAGE dMISS LATENCY: 108.206 cycles
LLC AVERAGE itMISS LATENCY: 1.19541 cycles
LLC AVERAGE dtMISS LATENCY: 4.09821 cycles
LLC PAGE CROSSINGS (TLB HIT):         0 
LLC PAGE CROSSINGS (TLB MISS):         0 
LLC AVERAGE MISS LATENCY: 158.506 cycles

PageTableWalker TOTAL       ACCESS:      80372  
PageTableWalker AVERAGE LATENCY: 4.04582 cycles
PageTableWalker TOTAL LATENCY: 325170 cycles

DRAM Statistics
Channel 0
 RQ ROW_BUFFER_HIT:     222808
  ROW_BUFFER_MISS:     572501
 AVG DBUS CONGESTED CYCLE:    3.63542
 WQ ROW_BUFFER_HIT:      21599
  ROW_BUFFER_MISS:      30254  FULL:          0

