last_page:0x200000000000000
VMEM_RES_CAP:0x100000
PAGE_SIZE:4096
LOG2_PAGE_SIZE:12
LOG2_PAGE_TABLE_SIZE:9
page_table_levels:5
WARNING: physical memory size is smaller than virtual memory size
FDiP enabled with aggresivity 16

*** ChampSim Multicore Out-of-Order Simulator ***

Warmup Instructions: 50000000
Simulation Instructions: 100000000
Number of CPUs: 1
Small page size: 4096
Large page size: 2097152

CPU 0 Bimodal branch predictor
Basic BTB sets: 1024 ways: 8 indirect buffer size: 4096 RAS size: 64
Instruction page size distrubution: 0
Loading instruction page size distribution from /home/bsc/bsc018186/scratch/itp_asplos25_AE/dump/srv697_ap.pdst
Data page size distrubution: 0
Loading data page size distribution from /home/bsc/bsc018186/scratch/itp_asplos25_AE/dump/srv697_ap.pdst
cpu0_L2C IP-based stride prefetcher
cpu0_L1D next line prefetcher
CHiRPing...
cpu0_L1I next line prefetcher
Off-chip DRAM Size: 4 GiB Channels: 1 Width: 64-bit Data Rate: 3200 MT/s
Heartbeat CPU 0 instructions: 10000002 cycles: 2500165 heartbeat IPC: 3.99974 cumulative IPC: 3.99974 (Simulation time: 0 hr 0 min 38 sec) 
Heartbeat CPU 0 instructions: 20000000 cycles: 5000236 heartbeat IPC: 3.99989 cumulative IPC: 3.99982 (Simulation time: 0 hr 1 min 18 sec) 
Heartbeat CPU 0 instructions: 30000002 cycles: 7500295 heartbeat IPC: 3.99991 cumulative IPC: 3.99985 (Simulation time: 0 hr 1 min 59 sec) 
Heartbeat CPU 0 instructions: 40000003 cycles: 10000345 heartbeat IPC: 3.99993 cumulative IPC: 3.99987 (Simulation time: 0 hr 2 min 41 sec) 
Heartbeat CPU 0 instructions: 50000001 cycles: 12500384 heartbeat IPC: 3.99994 cumulative IPC: 3.99988 (Simulation time: 0 hr 3 min 23 sec) 
Warmup finished CPU 0 instructions: 50000001 cycles: 12500385 cumulative IPC: 3.99988 (Simulation time: 0 hr 3 min 23 sec) 

Warmup complete CPU 0 instructions: 50000001 cycles: 12500385 (Simulation time: 0 hr 3 min 23 sec) 

Heartbeat CPU 0 instructions: 60000002 cycles: 27912666 heartbeat IPC: 0.648834 cumulative IPC: 0.648834 (Simulation time: 0 hr 4 min 31 sec) 
Heartbeat CPU 0 instructions: 70000000 cycles: 42417834 heartbeat IPC: 0.68941 cumulative IPC: 0.668507 (Simulation time: 0 hr 5 min 37 sec) 
Heartbeat CPU 0 instructions: 80000000 cycles: 58096021 heartbeat IPC: 0.637829 cumulative IPC: 0.657958 (Simulation time: 0 hr 6 min 46 sec) 
Heartbeat CPU 0 instructions: 90000002 cycles: 72862892 heartbeat IPC: 0.677192 cumulative IPC: 0.662664 (Simulation time: 0 hr 7 min 53 sec) 
Heartbeat CPU 0 instructions: 100000000 cycles: 88060068 heartbeat IPC: 0.658017 cumulative IPC: 0.661729 (Simulation time: 0 hr 9 min 0 sec) 
*** Reached end of trace: /gpfs/projects/bsc18/MN4/bsc18/romol/ChampSim/traces/qualcomm_srv/srv697_ap.champsimtrace.xz
Heartbeat CPU 0 instructions: 110000002 cycles: 102827141 heartbeat IPC: 0.677183 cumulative IPC: 0.664256 (Simulation time: 0 hr 10 min 7 sec) 
Heartbeat CPU 0 instructions: 120000000 cycles: 117744743 heartbeat IPC: 0.670349 cumulative IPC: 0.665119 (Simulation time: 0 hr 11 min 14 sec) 
Heartbeat CPU 0 instructions: 130000000 cycles: 133302681 heartbeat IPC: 0.642759 cumulative IPC: 0.66224 (Simulation time: 0 hr 12 min 21 sec) 
Heartbeat CPU 0 instructions: 140000003 cycles: 147838705 heartbeat IPC: 0.687947 cumulative IPC: 0.665001 (Simulation time: 0 hr 13 min 28 sec) 
Heartbeat CPU 0 instructions: 150000000 cycles: 163346632 heartbeat IPC: 0.644832 cumulative IPC: 0.662927 (Simulation time: 0 hr 14 min 34 sec) 
Simulation finished CPU 0 instructions: 100000004 cycles: 150846249 cumulative IPC: 0.662927 (Simulation time: 0 hr 14 min 34 sec) 

Simulation complete CPU 0 instructions: 100000004 cycles: 150846249 (Simulation time: 0 hr 14 min 34 sec) 


ChampSim completed all CPUs

Saving instructions large page distribution to /home/bsc/bsc018186/scratch/itp_asplos25_AE/dump/srv697_ap.pdst...
Saving data large page distribution to /home/bsc/bsc018186/scratch/itp_asplos25_AE/dump/srv697_ap.pdst...
=== Simulation ===
CPU 0 runs /gpfs/projects/bsc18/MN4/bsc18/romol/ChampSim/traces/qualcomm_srv/srv697_ap.champsimtrace.xz

Region of Interest Statistics

CPU 0 cumulative IPC: 0.662927 instructions: 100000004 cycles: 150846249
CPU 0 Branch Prediction Accuracy: 83.463% MPKI: 29.7079 Average ROB Occupancy at Mispredict: 12.744
Branch type MPKI
BRANCH_DIRECT_JUMP: 0.95082
BRANCH_INDIRECT: 15.4078
BRANCH_CONDITIONAL: 9.71741
BRANCH_DIRECT_CALL: 1.81124
BRANCH_INDIRECT_CALL: 0.50032
BRANCH_RETURN: 1.3204

Instructions large pages: 0
Instructions small pages: 9679
Large page distribution for instructions: 0%

Data large pages: 0
Data small pages: 8829
Large page distribution for data: 0%

cpu0_L1I TOTAL       ACCESS:   34583770  HIT:   26657565  MISS:    7926205  iACCESS:   34583770  iHIT:   26657565  iMISS:    7926205  dACCESS:          0  dHIT:          0  dMISS:          0  itACCESS:          0  itHIT:          0  itMISS:          0  dtACCESS:          0  dtHIT:          0  dtMISS:          0
cpu0_L1I LOAD         ACCESS:   10088879  HIT:    7856981  MISS:    2231898  iACCESS:   10088879  iHIT:    7856981  iMISS:    2231898  dACCESS:          0  dHIT:          0  dMISS:          0  itACCESS:          0  itHIT:          0  itMISS:          0  dtACCESS:          0  dtHIT:          0  dtMISS:          0
cpu0_L1I RFO          ACCESS:          0  HIT:          0  MISS:          0  iACCESS:          0  iHIT:          0  iMISS:          0  dACCESS:          0  dHIT:          0  dMISS:          0  itACCESS:          0  itHIT:          0  itMISS:          0  dtACCESS:          0  dtHIT:          0  dtMISS:          0
cpu0_L1I PREFETCH     ACCESS:   24494891  HIT:   18800584  MISS:    5694307  iACCESS:   24494891  iHIT:   18800584  iMISS:    5694307  dACCESS:          0  dHIT:          0  dMISS:          0  itACCESS:          0  itHIT:          0  itMISS:          0  dtACCESS:          0  dtHIT:          0  dtMISS:          0
cpu0_L1I WRITE        ACCESS:          0  HIT:          0  MISS:          0  iACCESS:          0  iHIT:          0  iMISS:          0  dACCESS:          0  dHIT:          0  dMISS:          0  itACCESS:          0  itHIT:          0  itMISS:          0  dtACCESS:          0  dtHIT:          0  dtMISS:          0
cpu0_L1I TRANSLATION  ACCESS:          0  HIT:          0  MISS:          0  iACCESS:          0  iHIT:          0  iMISS:          0  dACCESS:          0  dHIT:          0  dMISS:          0  itACCESS:          0  itHIT:          0  itMISS:          0  dtACCESS:          0  dtHIT:          0  dtMISS:          0
cpu0_L1I PREFETCH  REQUESTED:   26995690  ISSUED:   26995690  CROSSED:          0  USEFUL:    1926681  USELESS:     639014
cpu0_L1I AVERAGE iMISS LATENCY: 12.5367 cycles
cpu0_L1I AVERAGE dMISS LATENCY: 0 cycles
cpu0_L1I AVERAGE itMISS LATENCY: 0 cycles
cpu0_L1I AVERAGE dtMISS LATENCY: 0 cycles
cpu0_L1I PAGE CROSSINGS (TLB HIT):         0 
cpu0_L1I PAGE CROSSINGS (TLB MISS):         0 
cpu0_L1I AVERAGE MISS LATENCY: 12.5367 cycles
cpu0_ITLB TOTAL       ACCESS:   28909456  HIT:   26894056  MISS:    2015400  iACCESS:   28909456  iHIT:   26894056  iMISS:    2015400  dACCESS:          0  dHIT:          0  dMISS:          0  itACCESS:          0  itHIT:          0  itMISS:          0  dtACCESS:          0  dtHIT:          0  dtMISS:          0
cpu0_ITLB LOAD         ACCESS:   28909456  HIT:   26894056  MISS:    2015400  iACCESS:   28909456  iHIT:   26894056  iMISS:    2015400  dACCESS:          0  dHIT:          0  dMISS:          0  itACCESS:          0  itHIT:          0  itMISS:          0  dtACCESS:          0  dtHIT:          0  dtMISS:          0
cpu0_ITLB RFO          ACCESS:          0  HIT:          0  MISS:          0  iACCESS:          0  iHIT:          0  iMISS:          0  dACCESS:          0  dHIT:          0  dMISS:          0  itACCESS:          0  itHIT:          0  itMISS:          0  dtACCESS:          0  dtHIT:          0  dtMISS:          0
cpu0_ITLB PREFETCH     ACCESS:          0  HIT:          0  MISS:          0  iACCESS:          0  iHIT:          0  iMISS:          0  dACCESS:          0  dHIT:          0  dMISS:          0  itACCESS:          0  itHIT:          0  itMISS:          0  dtACCESS:          0  dtHIT:          0  dtMISS:          0
cpu0_ITLB WRITE        ACCESS:          0  HIT:          0  MISS:          0  iACCESS:          0  iHIT:          0  iMISS:          0  dACCESS:          0  dHIT:          0  dMISS:          0  itACCESS:          0  itHIT:          0  itMISS:          0  dtACCESS:          0  dtHIT:          0  dtMISS:          0
cpu0_ITLB TRANSLATION  ACCESS:          0  HIT:          0  MISS:          0  iACCESS:          0  iHIT:          0  iMISS:          0  dACCESS:          0  dHIT:          0  dMISS:          0  itACCESS:          0  itHIT:          0  itMISS:          0  dtACCESS:          0  dtHIT:          0  dtMISS:          0
cpu0_ITLB PREFETCH  REQUESTED:          0  ISSUED:          0  CROSSED:          0  USEFUL:     325474  USELESS:      63477
cpu0_ITLB AVERAGE iMISS LATENCY: 4.81718 cycles
cpu0_ITLB AVERAGE dMISS LATENCY: 0 cycles
cpu0_ITLB AVERAGE itMISS LATENCY: 0 cycles
cpu0_ITLB AVERAGE dtMISS LATENCY: 0 cycles
cpu0_ITLB PAGE CROSSINGS (TLB HIT):         0 
cpu0_ITLB PAGE CROSSINGS (TLB MISS):         0 
cpu0_ITLB AVERAGE MISS LATENCY: 4.81718 cycles
cpu0_DTLB TOTAL       ACCESS:   27702273  HIT:   25653174  MISS:    2049099  iACCESS:          0  iHIT:          0  iMISS:          0  dACCESS:   27702273  dHIT:   25653174  dMISS:    2049099  itACCESS:          0  itHIT:          0  itMISS:          0  dtACCESS:          0  dtHIT:          0  dtMISS:          0
cpu0_DTLB LOAD         ACCESS:   27702273  HIT:   25653174  MISS:    2049099  iACCESS:          0  iHIT:          0  iMISS:          0  dACCESS:   27702273  dHIT:   25653174  dMISS:    2049099  itACCESS:          0  itHIT:          0  itMISS:          0  dtACCESS:          0  dtHIT:          0  dtMISS:          0
cpu0_DTLB RFO          ACCESS:          0  HIT:          0  MISS:          0  iACCESS:          0  iHIT:          0  iMISS:          0  dACCESS:          0  dHIT:          0  dMISS:          0  itACCESS:          0  itHIT:          0  itMISS:          0  dtACCESS:          0  dtHIT:          0  dtMISS:          0
cpu0_DTLB PREFETCH     ACCESS:          0  HIT:          0  MISS:          0  iACCESS:          0  iHIT:          0  iMISS:          0  dACCESS:          0  dHIT:          0  dMISS:          0  itACCESS:          0  itHIT:          0  itMISS:          0  dtACCESS:          0  dtHIT:          0  dtMISS:          0
cpu0_DTLB WRITE        ACCESS:          0  HIT:          0  MISS:          0  iACCESS:          0  iHIT:          0  iMISS:          0  dACCESS:          0  dHIT:          0  dMISS:          0  itACCESS:          0  itHIT:          0  itMISS:          0  dtACCESS:          0  dtHIT:          0  dtMISS:          0
cpu0_DTLB TRANSLATION  ACCESS:          0  HIT:          0  MISS:          0  iACCESS:          0  iHIT:          0  iMISS:          0  dACCESS:          0  dHIT:          0  dMISS:          0  itACCESS:          0  itHIT:          0  itMISS:          0  dtACCESS:          0  dtHIT:          0  dtMISS:          0
cpu0_DTLB PREFETCH  REQUESTED:          0  ISSUED:          0  CROSSED:          0  USEFUL:          0  USELESS:          0
cpu0_DTLB AVERAGE iMISS LATENCY: 0 cycles
cpu0_DTLB AVERAGE dMISS LATENCY: 14.6876 cycles
cpu0_DTLB AVERAGE itMISS LATENCY: 0 cycles
cpu0_DTLB AVERAGE dtMISS LATENCY: 0 cycles
cpu0_DTLB PAGE CROSSINGS (TLB HIT):         0 
cpu0_DTLB PAGE CROSSINGS (TLB MISS):         0 
cpu0_DTLB AVERAGE MISS LATENCY: 14.6876 cycles
cpu0_STLB TOTAL       ACCESS:    1631026  HIT:    1469653  MISS:     161373  iACCESS:     388959  iHIT:     332346  iMISS:      56613  dACCESS:    1242067  dHIT:    1137307  dMISS:     104760  itACCESS:          0  itHIT:          0  itMISS:          0  dtACCESS:          0  dtHIT:          0  dtMISS:          0
cpu0_STLB LOAD         ACCESS:    1631026  HIT:    1469653  MISS:     161373  iACCESS:     388959  iHIT:     332346  iMISS:      56613  dACCESS:    1242067  dHIT:    1137307  dMISS:     104760  itACCESS:          0  itHIT:          0  itMISS:          0  dtACCESS:          0  dtHIT:          0  dtMISS:          0
cpu0_STLB RFO          ACCESS:          0  HIT:          0  MISS:          0  iACCESS:          0  iHIT:          0  iMISS:          0  dACCESS:          0  dHIT:          0  dMISS:          0  itACCESS:          0  itHIT:          0  itMISS:          0  dtACCESS:          0  dtHIT:          0  dtMISS:          0
cpu0_STLB PREFETCH     ACCESS:          0  HIT:          0  MISS:          0  iACCESS:          0  iHIT:          0  iMISS:          0  dACCESS:          0  dHIT:          0  dMISS:          0  itACCESS:          0  itHIT:          0  itMISS:          0  dtACCESS:          0  dtHIT:          0  dtMISS:          0
cpu0_STLB WRITE        ACCESS:          0  HIT:          0  MISS:          0  iACCESS:          0  iHIT:          0  iMISS:          0  dACCESS:          0  dHIT:          0  dMISS:          0  itACCESS:          0  itHIT:          0  itMISS:          0  dtACCESS:          0  dtHIT:          0  dtMISS:          0
cpu0_STLB TRANSLATION  ACCESS:          0  HIT:          0  MISS:          0  iACCESS:          0  iHIT:          0  iMISS:          0  dACCESS:          0  dHIT:          0  dMISS:          0  itACCESS:          0  itHIT:          0  itMISS:          0  dtACCESS:          0  dtHIT:          0  dtMISS:          0
cpu0_STLB PREFETCH  REQUESTED:          0  ISSUED:          0  CROSSED:          0  USEFUL:          0  USELESS:          0
cpu0_STLB AVERAGE iMISS LATENCY: 41.131 cycles
cpu0_STLB AVERAGE dMISS LATENCY: 125.16 cycles
cpu0_STLB AVERAGE itMISS LATENCY: 0 cycles
cpu0_STLB AVERAGE dtMISS LATENCY: 0 cycles
cpu0_STLB PAGE CROSSINGS (TLB HIT):         0 
cpu0_STLB PAGE CROSSINGS (TLB MISS):         0 
cpu0_STLB AVERAGE MISS LATENCY: 166.291 cycles
cpu0_L1D TOTAL       ACCESS:   41427096  HIT:   37931872  MISS:    3495224  iACCESS:          0  iHIT:          0  iMISS:          0  dACCESS:   41206714  dHIT:   37912434  dMISS:    3294280  itACCESS:      61512  itHIT:       9148  itMISS:      52364  dtACCESS:     158870  dtHIT:      10290  dtMISS:     148580
cpu0_L1D LOAD         ACCESS:   18906684  HIT:   17401009  MISS:    1505675  iACCESS:          0  iHIT:          0  iMISS:          0  dACCESS:   18906684  dHIT:   17401009  dMISS:    1505675  itACCESS:          0  itHIT:          0  itMISS:          0  dtACCESS:          0  dtHIT:          0  dtMISS:          0
cpu0_L1D RFO          ACCESS:          0  HIT:          0  MISS:          0  iACCESS:          0  iHIT:          0  iMISS:          0  dACCESS:          0  dHIT:          0  dMISS:          0  itACCESS:          0  itHIT:          0  itMISS:          0  dtACCESS:          0  dtHIT:          0  dtMISS:          0
cpu0_L1D PREFETCH     ACCESS:   12140984  HIT:   10789417  MISS:    1351567  iACCESS:          0  iHIT:          0  iMISS:          0  dACCESS:   12140984  dHIT:   10789417  dMISS:    1351567  itACCESS:          0  itHIT:          0  itMISS:          0  dtACCESS:          0  dtHIT:          0  dtMISS:          0
cpu0_L1D WRITE        ACCESS:   10159046  HIT:    9722008  MISS:     437038  iACCESS:          0  iHIT:          0  iMISS:          0  dACCESS:   10159046  dHIT:    9722008  dMISS:     437038  itACCESS:          0  itHIT:          0  itMISS:          0  dtACCESS:          0  dtHIT:          0  dtMISS:          0
cpu0_L1D TRANSLATION  ACCESS:     220382  HIT:      19438  MISS:     200944  iACCESS:          0  iHIT:          0  iMISS:          0  dACCESS:          0  dHIT:          0  dMISS:          0  itACCESS:      61512  itHIT:       9148  itMISS:      52364  dtACCESS:     158870  dtHIT:      10290  dtMISS:     148580
cpu0_L1D PREFETCH  REQUESTED:   18906684  ISSUED:   16933549  CROSSED:          0  USEFUL:     307404  USELESS:     700888
cpu0_L1D AVERAGE iMISS LATENCY: 0 cycles
cpu0_L1D AVERAGE dMISS LATENCY: 31.7414 cycles
cpu0_L1D AVERAGE itMISS LATENCY: 1.7597 cycles
cpu0_L1D AVERAGE dtMISS LATENCY: 5.13606 cycles
cpu0_L1D PAGE CROSSINGS (TLB HIT):         0 
cpu0_L1D PAGE CROSSINGS (TLB MISS):         0 
cpu0_L1D AVERAGE MISS LATENCY: 38.6371 cycles
cpu0_L2C TOTAL       ACCESS:    7000218  HIT:    4120023  MISS:    2880195  iACCESS:    3330009  iHIT:    2249343  iMISS:    1080666  dACCESS:    3479381  dHIT:    1845716  dMISS:    1633665  itACCESS:      52364  itHIT:       9458  itMISS:      42906  dtACCESS:     138464  dtHIT:      15506  dtMISS:     122958
cpu0_L2C LOAD         ACCESS:    1739012  HIT:    1062160  MISS:     676852  iACCESS:     805004  iHIT:     572273  iMISS:     232731  dACCESS:     934008  dHIT:     489887  dMISS:     444121  itACCESS:          0  itHIT:          0  itMISS:          0  dtACCESS:          0  dtHIT:          0  dtMISS:          0
cpu0_L2C RFO          ACCESS:     155659  HIT:      72699  MISS:      82960  iACCESS:          0  iHIT:          0  iMISS:          0  dACCESS:     155659  dHIT:      72699  dMISS:      82960  itACCESS:          0  itHIT:          0  itMISS:          0  dtACCESS:          0  dtHIT:          0  dtMISS:          0
cpu0_L2C PREFETCH     ACCESS:    4630192  HIT:    2677072  MISS:    1953120  iACCESS:    2525005  iHIT:    1677070  iMISS:     847935  dACCESS:    2105187  dHIT:    1000002  dMISS:    1105185  itACCESS:          0  itHIT:          0  itMISS:          0  dtACCESS:          0  dtHIT:          0  dtMISS:          0
cpu0_L2C WRITE        ACCESS:     284527  HIT:     283128  MISS:       1399  iACCESS:          0  iHIT:          0  iMISS:          0  dACCESS:     284527  dHIT:     283128  dMISS:       1399  itACCESS:          0  itHIT:          0  itMISS:          0  dtACCESS:          0  dtHIT:          0  dtMISS:          0
cpu0_L2C TRANSLATION  ACCESS:     190828  HIT:      24964  MISS:     165864  iACCESS:          0  iHIT:          0  iMISS:          0  dACCESS:          0  dHIT:          0  dMISS:          0  itACCESS:      52364  itHIT:       9458  itMISS:      42906  dtACCESS:     138464  dtHIT:      15506  dtMISS:     122958
cpu0_L2C PREFETCH  REQUESTED:    1378425  ISSUED:    1378425  CROSSED:          0  USEFUL:     309693  USELESS:     228199
cpu0_L2C AVERAGE iMISS LATENCY: 23.8962 cycles
cpu0_L2C AVERAGE dMISS LATENCY: 45.1611 cycles
cpu0_L2C AVERAGE itMISS LATENCY: 1.95648 cycles
cpu0_L2C AVERAGE dtMISS LATENCY: 5.7534 cycles
cpu0_L2C PAGE CROSSINGS (TLB HIT):         0 
cpu0_L2C PAGE CROSSINGS (TLB MISS):         0 
cpu0_L2C AVERAGE MISS LATENCY: 76.7671 cycles
LLC TOTAL       ACCESS:    2907520  HIT:    1854234  MISS:    1053286  iACCESS:    1025582  iHIT:     697586  iMISS:     327996  dACCESS:    1716074  dHIT:    1098230  dMISS:     617844  itACCESS:      42906  itHIT:      14825  itMISS:      28081  dtACCESS:     122958  dtHIT:      43593  dtMISS:      79365
LLC LOAD         ACCESS:     675499  HIT:     449937  MISS:     225562  iACCESS:     231484  iHIT:     158932  iMISS:      72552  dACCESS:     444015  dHIT:     291005  dMISS:     153010  itACCESS:          0  itHIT:          0  itMISS:          0  dtACCESS:          0  dtHIT:          0  dtMISS:          0
LLC RFO          ACCESS:      82952  HIT:      43107  MISS:      39845  iACCESS:          0  iHIT:          0  iMISS:          0  dACCESS:      82952  dHIT:      43107  dMISS:      39845  itACCESS:          0  itHIT:          0  itMISS:          0  dtACCESS:          0  dtHIT:          0  dtMISS:          0
LLC PREFETCH     ACCESS:    1847470  HIT:    1173663  MISS:     673807  iACCESS:     794098  iHIT:     538654  iMISS:     255444  dACCESS:    1053372  dHIT:     635009  dMISS:     418363  itACCESS:          0  itHIT:          0  itMISS:          0  dtACCESS:          0  dtHIT:          0  dtMISS:          0
LLC WRITE        ACCESS:     135735  HIT:     129109  MISS:       6626  iACCESS:          0  iHIT:          0  iMISS:          0  dACCESS:     135735  dHIT:     129109  dMISS:       6626  itACCESS:          0  itHIT:          0  itMISS:          0  dtACCESS:          0  dtHIT:          0  dtMISS:          0
LLC TRANSLATION  ACCESS:     165864  HIT:      58418  MISS:     107446  iACCESS:          0  iHIT:          0  iMISS:          0  dACCESS:          0  dHIT:          0  dMISS:          0  itACCESS:      42906  itHIT:      14825  itMISS:      28081  dtACCESS:     122958  dtHIT:      43593  dtMISS:      79365
LLC PREFETCH  REQUESTED:          0  ISSUED:          0  CROSSED:          0  USEFUL:          0  USELESS:          0
LLC AVERAGE iMISS LATENCY: 46.4269 cycles
LLC AVERAGE dMISS LATENCY: 94.4048 cycles
LLC AVERAGE itMISS LATENCY: 4.5513 cycles
LLC AVERAGE dtMISS LATENCY: 13.4456 cycles
LLC PAGE CROSSINGS (TLB HIT):         0 
LLC PAGE CROSSINGS (TLB MISS):         0 
LLC AVERAGE MISS LATENCY: 158.829 cycles

PageTableWalker TOTAL       ACCESS:      81650  
PageTableWalker AVERAGE LATENCY: 5.2166 cycles
PageTableWalker TOTAL LATENCY: 425935 cycles

DRAM Statistics
Channel 0
 RQ ROW_BUFFER_HIT:     268516
  ROW_BUFFER_MISS:     778076
 AVG DBUS CONGESTED CYCLE:    3.61681
 WQ ROW_BUFFER_HIT:      21270
  ROW_BUFFER_MISS:      22122  FULL:          0

