last_page:0x200000000000000
VMEM_RES_CAP:0x100000
PAGE_SIZE:4096
LOG2_PAGE_SIZE:12
LOG2_PAGE_TABLE_SIZE:9
page_table_levels:5
WARNING: physical memory size is smaller than virtual memory size
FDiP enabled with aggresivity 16

*** ChampSim Multicore Out-of-Order Simulator ***

Warmup Instructions: 50000000
Simulation Instructions: 100000000
Number of CPUs: 1
Small page size: 4096
Large page size: 2097152

CPU 0 Bimodal branch predictor
Basic BTB sets: 1024 ways: 8 indirect buffer size: 4096 RAS size: 64
Instruction page size distrubution: 0
Loading instruction page size distribution from /home/bsc/bsc018186/scratch/itp_asplos25_AE/dump/srv606_ap.pdst
Data page size distrubution: 0
Loading data page size distribution from /home/bsc/bsc018186/scratch/itp_asplos25_AE/dump/srv606_ap.pdst
cpu0_L2C IP-based stride prefetcher
cpu0_L2C is using xPTP/LRU
	TLB_LOWER_STRESS_THRESHOLD:1
	TLB_UPPER_STRESS_THRESHOLD:9
	MIN_EVICTION_POSITION:4
cpu0_L1D next line prefetcher
cpu0_STLB using iTP with max lru@8
cpu0_STLB using iTP with instr@0 and data@2
Init sat counter with 3 bits (max:50).
cpu0_L1I next line prefetcher
Off-chip DRAM Size: 4 GiB Channels: 1 Width: 64-bit Data Rate: 3200 MT/s
Heartbeat CPU 0 instructions: 10000002 cycles: 2500164 heartbeat IPC: 3.99974 cumulative IPC: 3.99974 (Simulation time: 0 hr 0 min 41 sec) 
Heartbeat CPU 0 instructions: 20000002 cycles: 5000191 heartbeat IPC: 3.99996 cumulative IPC: 3.99985 (Simulation time: 0 hr 1 min 24 sec) 
Heartbeat CPU 0 instructions: 30000002 cycles: 7500233 heartbeat IPC: 3.99994 cumulative IPC: 3.99988 (Simulation time: 0 hr 2 min 9 sec) 
Heartbeat CPU 0 instructions: 40000002 cycles: 10000233 heartbeat IPC: 4 cumulative IPC: 3.99991 (Simulation time: 0 hr 2 min 53 sec) 
Heartbeat CPU 0 instructions: 50000003 cycles: 12500298 heartbeat IPC: 3.9999 cumulative IPC: 3.99991 (Simulation time: 0 hr 3 min 37 sec) 
Warmup finished CPU 0 instructions: 50000003 cycles: 12500299 cumulative IPC: 3.99991 (Simulation time: 0 hr 3 min 37 sec) 

Warmup complete CPU 0 instructions: 50000003 cycles: 12500299 (Simulation time: 0 hr 3 min 37 sec) 

Heartbeat CPU 0 instructions: 60000001 cycles: 25508185 heartbeat IPC: 0.768765 cumulative IPC: 0.768765 (Simulation time: 0 hr 4 min 42 sec) 
Heartbeat CPU 0 instructions: 70000000 cycles: 37505530 heartbeat IPC: 0.833518 cumulative IPC: 0.799833 (Simulation time: 0 hr 5 min 49 sec) 
Heartbeat CPU 0 instructions: 80000001 cycles: 50371161 heartbeat IPC: 0.777265 cumulative IPC: 0.792166 (Simulation time: 0 hr 6 min 54 sec) 
Heartbeat CPU 0 instructions: 90000001 cycles: 63365280 heartbeat IPC: 0.769579 cumulative IPC: 0.786396 (Simulation time: 0 hr 8 min 1 sec) 
Heartbeat CPU 0 instructions: 100000004 cycles: 76120981 heartbeat IPC: 0.783964 cumulative IPC: 0.785908 (Simulation time: 0 hr 9 min 4 sec) 
*** Reached end of trace: /gpfs/projects/bsc18/MN4/bsc18/romol/ChampSim/traces/qualcomm_srv/srv606_ap.champsimtrace.xz
Heartbeat CPU 0 instructions: 110000001 cycles: 88146968 heartbeat IPC: 0.831533 cumulative IPC: 0.793162 (Simulation time: 0 hr 10 min 4 sec) 
Heartbeat CPU 0 instructions: 120000001 cycles: 101078976 heartbeat IPC: 0.773276 cumulative IPC: 0.790258 (Simulation time: 0 hr 11 min 7 sec) 
Heartbeat CPU 0 instructions: 130000003 cycles: 113932119 heartbeat IPC: 0.77802 cumulative IPC: 0.788708 (Simulation time: 0 hr 12 min 9 sec) 
Heartbeat CPU 0 instructions: 140000000 cycles: 125896524 heartbeat IPC: 0.835813 cumulative IPC: 0.793678 (Simulation time: 0 hr 13 min 11 sec) 
Heartbeat CPU 0 instructions: 150000003 cycles: 139814972 heartbeat IPC: 0.718472 cumulative IPC: 0.785456 (Simulation time: 0 hr 14 min 15 sec) 
Simulation finished CPU 0 instructions: 100000000 cycles: 127314674 cumulative IPC: 0.785456 (Simulation time: 0 hr 14 min 15 sec) 

Simulation complete CPU 0 instructions: 100000000 cycles: 127314674 (Simulation time: 0 hr 14 min 15 sec) 


ChampSim completed all CPUs

Saving instructions large page distribution to /home/bsc/bsc018186/scratch/itp_asplos25_AE/dump/srv606_ap.pdst...
Saving data large page distribution to /home/bsc/bsc018186/scratch/itp_asplos25_AE/dump/srv606_ap.pdst...
=== Simulation ===
CPU 0 runs /gpfs/projects/bsc18/MN4/bsc18/romol/ChampSim/traces/qualcomm_srv/srv606_ap.champsimtrace.xz

Region of Interest Statistics

CPU 0 cumulative IPC: 0.785456 instructions: 100000000 cycles: 127314674
CPU 0 Branch Prediction Accuracy: 83.5483% MPKI: 29.4216 Average ROB Occupancy at Mispredict: 12.6916
Branch type MPKI
BRANCH_DIRECT_JUMP: 1.00797
BRANCH_INDIRECT: 15.1839
BRANCH_CONDITIONAL: 9.58322
BRANCH_DIRECT_CALL: 1.81744
BRANCH_INDIRECT_CALL: 0.508531
BRANCH_RETURN: 1.32054

Instructions large pages: 0
Instructions small pages: 1024
Large page distribution for instructions: 0%

Data large pages: 0
Data small pages: 9928
Large page distribution for data: 0%

cpu0_L1I TOTAL       ACCESS:   34901569  HIT:   26929506  MISS:    7972063  iACCESS:   34901569  iHIT:   26929506  iMISS:    7972063  dACCESS:          0  dHIT:          0  dMISS:          0  itACCESS:          0  itHIT:          0  itMISS:          0  dtACCESS:          0  dtHIT:          0  dtMISS:          0
cpu0_L1I LOAD         ACCESS:   10257933  HIT:    8017640  MISS:    2240293  iACCESS:   10257933  iHIT:    8017640  iMISS:    2240293  dACCESS:          0  dHIT:          0  dMISS:          0  itACCESS:          0  itHIT:          0  itMISS:          0  dtACCESS:          0  dtHIT:          0  dtMISS:          0
cpu0_L1I RFO          ACCESS:          0  HIT:          0  MISS:          0  iACCESS:          0  iHIT:          0  iMISS:          0  dACCESS:          0  dHIT:          0  dMISS:          0  itACCESS:          0  itHIT:          0  itMISS:          0  dtACCESS:          0  dtHIT:          0  dtMISS:          0
cpu0_L1I PREFETCH     ACCESS:   24643636  HIT:   18911866  MISS:    5731770  iACCESS:   24643636  iHIT:   18911866  iMISS:    5731770  dACCESS:          0  dHIT:          0  dMISS:          0  itACCESS:          0  itHIT:          0  itMISS:          0  dtACCESS:          0  dtHIT:          0  dtMISS:          0
cpu0_L1I WRITE        ACCESS:          0  HIT:          0  MISS:          0  iACCESS:          0  iHIT:          0  iMISS:          0  dACCESS:          0  dHIT:          0  dMISS:          0  itACCESS:          0  itHIT:          0  itMISS:          0  dtACCESS:          0  dtHIT:          0  dtMISS:          0
cpu0_L1I TRANSLATION  ACCESS:          0  HIT:          0  MISS:          0  iACCESS:          0  iHIT:          0  iMISS:          0  dACCESS:          0  dHIT:          0  dMISS:          0  itACCESS:          0  itHIT:          0  itMISS:          0  dtACCESS:          0  dtHIT:          0  dtMISS:          0
cpu0_L1I PREFETCH  REQUESTED:   27147087  ISSUED:   27147007  CROSSED:          0  USEFUL:    1897938  USELESS:     626838
cpu0_L1I AVERAGE iMISS LATENCY: 10.8036 cycles
cpu0_L1I AVERAGE dMISS LATENCY: 0 cycles
cpu0_L1I AVERAGE itMISS LATENCY: 0 cycles
cpu0_L1I AVERAGE dtMISS LATENCY: 0 cycles
cpu0_L1I PAGE CROSSINGS (TLB HIT):         0 
cpu0_L1I PAGE CROSSINGS (TLB MISS):         0 
cpu0_L1I AVERAGE MISS LATENCY: 10.8036 cycles
cpu0_ITLB TOTAL       ACCESS:   29041692  HIT:   27076658  MISS:    1965034  iACCESS:   29041692  iHIT:   27076658  iMISS:    1965034  dACCESS:          0  dHIT:          0  dMISS:          0  itACCESS:          0  itHIT:          0  itMISS:          0  dtACCESS:          0  dtHIT:          0  dtMISS:          0
cpu0_ITLB LOAD         ACCESS:   29041692  HIT:   27076658  MISS:    1965034  iACCESS:   29041692  iHIT:   27076658  iMISS:    1965034  dACCESS:          0  dHIT:          0  dMISS:          0  itACCESS:          0  itHIT:          0  itMISS:          0  dtACCESS:          0  dtHIT:          0  dtMISS:          0
cpu0_ITLB RFO          ACCESS:          0  HIT:          0  MISS:          0  iACCESS:          0  iHIT:          0  iMISS:          0  dACCESS:          0  dHIT:          0  dMISS:          0  itACCESS:          0  itHIT:          0  itMISS:          0  dtACCESS:          0  dtHIT:          0  dtMISS:          0
cpu0_ITLB PREFETCH     ACCESS:          0  HIT:          0  MISS:          0  iACCESS:          0  iHIT:          0  iMISS:          0  dACCESS:          0  dHIT:          0  dMISS:          0  itACCESS:          0  itHIT:          0  itMISS:          0  dtACCESS:          0  dtHIT:          0  dtMISS:          0
cpu0_ITLB WRITE        ACCESS:          0  HIT:          0  MISS:          0  iACCESS:          0  iHIT:          0  iMISS:          0  dACCESS:          0  dHIT:          0  dMISS:          0  itACCESS:          0  itHIT:          0  itMISS:          0  dtACCESS:          0  dtHIT:          0  dtMISS:          0
cpu0_ITLB TRANSLATION  ACCESS:          0  HIT:          0  MISS:          0  iACCESS:          0  iHIT:          0  iMISS:          0  dACCESS:          0  dHIT:          0  dMISS:          0  itACCESS:          0  itHIT:          0  itMISS:          0  dtACCESS:          0  dtHIT:          0  dtMISS:          0
cpu0_ITLB PREFETCH  REQUESTED:          0  ISSUED:          0  CROSSED:          0  USEFUL:     320763  USELESS:      67157
cpu0_ITLB AVERAGE iMISS LATENCY: 1.98489 cycles
cpu0_ITLB AVERAGE dMISS LATENCY: 0 cycles
cpu0_ITLB AVERAGE itMISS LATENCY: 0 cycles
cpu0_ITLB AVERAGE dtMISS LATENCY: 0 cycles
cpu0_ITLB PAGE CROSSINGS (TLB HIT):         0 
cpu0_ITLB PAGE CROSSINGS (TLB MISS):         0 
cpu0_ITLB AVERAGE MISS LATENCY: 1.98489 cycles
cpu0_DTLB TOTAL       ACCESS:   27674951  HIT:   25640518  MISS:    2034433  iACCESS:          0  iHIT:          0  iMISS:          0  dACCESS:   27674951  dHIT:   25640518  dMISS:    2034433  itACCESS:          0  itHIT:          0  itMISS:          0  dtACCESS:          0  dtHIT:          0  dtMISS:          0
cpu0_DTLB LOAD         ACCESS:   27674951  HIT:   25640518  MISS:    2034433  iACCESS:          0  iHIT:          0  iMISS:          0  dACCESS:   27674951  dHIT:   25640518  dMISS:    2034433  itACCESS:          0  itHIT:          0  itMISS:          0  dtACCESS:          0  dtHIT:          0  dtMISS:          0
cpu0_DTLB RFO          ACCESS:          0  HIT:          0  MISS:          0  iACCESS:          0  iHIT:          0  iMISS:          0  dACCESS:          0  dHIT:          0  dMISS:          0  itACCESS:          0  itHIT:          0  itMISS:          0  dtACCESS:          0  dtHIT:          0  dtMISS:          0
cpu0_DTLB PREFETCH     ACCESS:          0  HIT:          0  MISS:          0  iACCESS:          0  iHIT:          0  iMISS:          0  dACCESS:          0  dHIT:          0  dMISS:          0  itACCESS:          0  itHIT:          0  itMISS:          0  dtACCESS:          0  dtHIT:          0  dtMISS:          0
cpu0_DTLB WRITE        ACCESS:          0  HIT:          0  MISS:          0  iACCESS:          0  iHIT:          0  iMISS:          0  dACCESS:          0  dHIT:          0  dMISS:          0  itACCESS:          0  itHIT:          0  itMISS:          0  dtACCESS:          0  dtHIT:          0  dtMISS:          0
cpu0_DTLB TRANSLATION  ACCESS:          0  HIT:          0  MISS:          0  iACCESS:          0  iHIT:          0  iMISS:          0  dACCESS:          0  dHIT:          0  dMISS:          0  itACCESS:          0  itHIT:          0  itMISS:          0  dtACCESS:          0  dtHIT:          0  dtMISS:          0
cpu0_DTLB PREFETCH  REQUESTED:          0  ISSUED:          0  CROSSED:          0  USEFUL:          0  USELESS:          0
cpu0_DTLB AVERAGE iMISS LATENCY: 0 cycles
cpu0_DTLB AVERAGE dMISS LATENCY: 10.6523 cycles
cpu0_DTLB AVERAGE itMISS LATENCY: 0 cycles
cpu0_DTLB AVERAGE dtMISS LATENCY: 0 cycles
cpu0_DTLB PAGE CROSSINGS (TLB HIT):         0 
cpu0_DTLB PAGE CROSSINGS (TLB MISS):         0 
cpu0_DTLB AVERAGE MISS LATENCY: 10.6523 cycles
cpu0_STLB TOTAL       ACCESS:    1631935  HIT:    1487990  MISS:     143945  iACCESS:     387922  iHIT:     380405  iMISS:       7517  dACCESS:    1244013  dHIT:    1107585  dMISS:     136428  itACCESS:          0  itHIT:          0  itMISS:          0  dtACCESS:          0  dtHIT:          0  dtMISS:          0
cpu0_STLB LOAD         ACCESS:    1631935  HIT:    1487990  MISS:     143945  iACCESS:     387922  iHIT:     380405  iMISS:       7517  dACCESS:    1244013  dHIT:    1107585  dMISS:     136428  itACCESS:          0  itHIT:          0  itMISS:          0  dtACCESS:          0  dtHIT:          0  dtMISS:          0
cpu0_STLB RFO          ACCESS:          0  HIT:          0  MISS:          0  iACCESS:          0  iHIT:          0  iMISS:          0  dACCESS:          0  dHIT:          0  dMISS:          0  itACCESS:          0  itHIT:          0  itMISS:          0  dtACCESS:          0  dtHIT:          0  dtMISS:          0
cpu0_STLB PREFETCH     ACCESS:          0  HIT:          0  MISS:          0  iACCESS:          0  iHIT:          0  iMISS:          0  dACCESS:          0  dHIT:          0  dMISS:          0  itACCESS:          0  itHIT:          0  itMISS:          0  dtACCESS:          0  dtHIT:          0  dtMISS:          0
cpu0_STLB WRITE        ACCESS:          0  HIT:          0  MISS:          0  iACCESS:          0  iHIT:          0  iMISS:          0  dACCESS:          0  dHIT:          0  dMISS:          0  itACCESS:          0  itHIT:          0  itMISS:          0  dtACCESS:          0  dtHIT:          0  dtMISS:          0
cpu0_STLB TRANSLATION  ACCESS:          0  HIT:          0  MISS:          0  iACCESS:          0  iHIT:          0  iMISS:          0  dACCESS:          0  dHIT:          0  dMISS:          0  itACCESS:          0  itHIT:          0  itMISS:          0  dtACCESS:          0  dtHIT:          0  dtMISS:          0
cpu0_STLB PREFETCH  REQUESTED:          0  ISSUED:          0  CROSSED:          0  USEFUL:          0  USELESS:          0
cpu0_STLB AVERAGE iMISS LATENCY: 6.18548 cycles
cpu0_STLB AVERAGE dMISS LATENCY: 81.5587 cycles
cpu0_STLB AVERAGE itMISS LATENCY: 0 cycles
cpu0_STLB AVERAGE dtMISS LATENCY: 0 cycles
cpu0_STLB PAGE CROSSINGS (TLB HIT):         0 
cpu0_STLB PAGE CROSSINGS (TLB MISS):         0 
cpu0_STLB AVERAGE MISS LATENCY: 87.7442 cycles
cpu0_L1D TOTAL       ACCESS:   41341790  HIT:   37917668  MISS:    3424122  iACCESS:          0  iHIT:          0  iMISS:          0  dACCESS:   41129368  dHIT:   37903723  dMISS:    3225645  itACCESS:       9596  itHIT:        881  itMISS:       8715  dtACCESS:     202826  dtHIT:      13064  dtMISS:     189762
cpu0_L1D LOAD         ACCESS:   18854330  HIT:   17387964  MISS:    1466366  iACCESS:          0  iHIT:          0  iMISS:          0  dACCESS:   18854330  dHIT:   17387964  dMISS:    1466366  itACCESS:          0  itHIT:          0  itMISS:          0  dtACCESS:          0  dtHIT:          0  dtMISS:          0
cpu0_L1D RFO          ACCESS:          0  HIT:          0  MISS:          0  iACCESS:          0  iHIT:          0  iMISS:          0  dACCESS:          0  dHIT:          0  dMISS:          0  itACCESS:          0  itHIT:          0  itMISS:          0  dtACCESS:          0  dtHIT:          0  dtMISS:          0
cpu0_L1D PREFETCH     ACCESS:   12081212  HIT:   10761707  MISS:    1319505  iACCESS:          0  iHIT:          0  iMISS:          0  dACCESS:   12081212  dHIT:   10761707  dMISS:    1319505  itACCESS:          0  itHIT:          0  itMISS:          0  dtACCESS:          0  dtHIT:          0  dtMISS:          0
cpu0_L1D WRITE        ACCESS:   10193826  HIT:    9754052  MISS:     439774  iACCESS:          0  iHIT:          0  iMISS:          0  dACCESS:   10193826  dHIT:    9754052  dMISS:     439774  itACCESS:          0  itHIT:          0  itMISS:          0  dtACCESS:          0  dtHIT:          0  dtMISS:          0
cpu0_L1D TRANSLATION  ACCESS:     212422  HIT:      13945  MISS:     198477  iACCESS:          0  iHIT:          0  iMISS:          0  dACCESS:          0  dHIT:          0  dMISS:          0  itACCESS:       9596  itHIT:        881  itMISS:       8715  dtACCESS:     202826  dtHIT:      13064  dtMISS:     189762
cpu0_L1D PREFETCH  REQUESTED:   18854330  ISSUED:   16897212  CROSSED:          0  USEFUL:     304746  USELESS:     696717
cpu0_L1D AVERAGE iMISS LATENCY: 0 cycles
cpu0_L1D AVERAGE dMISS LATENCY: 29.091 cycles
cpu0_L1D AVERAGE itMISS LATENCY: 0.235833 cycles
cpu0_L1D AVERAGE dtMISS LATENCY: 2.62655 cycles
cpu0_L1D PAGE CROSSINGS (TLB HIT):         0 
cpu0_L1D PAGE CROSSINGS (TLB MISS):         0 
cpu0_L1D AVERAGE MISS LATENCY: 31.9533 cycles
cpu0_L2C TOTAL       ACCESS:    6899370  HIT:    2615718  MISS:    4283652  iACCESS:    3277148  iHIT:    1469658  iMISS:    1807490  dACCESS:    3431262  dHIT:    1009514  dMISS:    2421748  itACCESS:       8534  itHIT:       2532  itMISS:       6002  dtACCESS:     182426  dtHIT:     134014  dtMISS:      48412
cpu0_L2C LOAD         ACCESS:    1712535  HIT:     566119  MISS:    1146416  iACCESS:     787277  iHIT:     322657  iMISS:     464620  dACCESS:     925258  dHIT:     243462  dMISS:     681796  itACCESS:          0  itHIT:          0  itMISS:          0  dtACCESS:          0  dtHIT:          0  dtMISS:          0
cpu0_L2C RFO          ACCESS:     157131  HIT:      34283  MISS:     122848  iACCESS:          0  iHIT:          0  iMISS:          0  dACCESS:     157131  dHIT:      34283  dMISS:     122848  itACCESS:          0  itHIT:          0  itMISS:          0  dtACCESS:          0  dtHIT:          0  dtMISS:          0
cpu0_L2C PREFETCH     ACCESS:    4555889  HIT:    1753867  MISS:    2802022  iACCESS:    2489871  iHIT:    1147001  iMISS:    1342870  dACCESS:    2066018  dHIT:     606866  dMISS:    1459152  itACCESS:          0  itHIT:          0  itMISS:          0  dtACCESS:          0  dtHIT:          0  dtMISS:          0
cpu0_L2C WRITE        ACCESS:     282855  HIT:     124903  MISS:     157952  iACCESS:          0  iHIT:          0  iMISS:          0  dACCESS:     282855  dHIT:     124903  dMISS:     157952  itACCESS:          0  itHIT:          0  itMISS:          0  dtACCESS:          0  dtHIT:          0  dtMISS:          0
cpu0_L2C TRANSLATION  ACCESS:     190960  HIT:     136546  MISS:      54414  iACCESS:          0  iHIT:          0  iMISS:          0  dACCESS:          0  dHIT:          0  dMISS:          0  itACCESS:       8534  itHIT:       2532  itMISS:       6002  dtACCESS:     182426  dtHIT:     134014  dtMISS:      48412
cpu0_L2C PREFETCH  REQUESTED:    1310928  ISSUED:    1310928  CROSSED:          0  USEFUL:     334422  USELESS:     309580
cpu0_L2C AVERAGE iMISS LATENCY: 13.1312 cycles
cpu0_L2C AVERAGE dMISS LATENCY: 25.1091 cycles
cpu0_L2C AVERAGE itMISS LATENCY: 0.169127 cycles
cpu0_L2C AVERAGE dtMISS LATENCY: 1.70269 cycles
cpu0_L2C PAGE CROSSINGS (TLB HIT):         0 
cpu0_L2C PAGE CROSSINGS (TLB MISS):         0 
cpu0_L2C AVERAGE MISS LATENCY: 40.1121 cycles
LLC TOTAL       ACCESS:    4242135  HIT:    3657475  MISS:     584660  iACCESS:    1765468  iHIT:    1619530  iMISS:     145938  dACCESS:    2422253  dHIT:    2023769  dMISS:     398484  itACCESS:       6002  itHIT:       2538  itMISS:       3464  dtACCESS:      48412  dtHIT:      11638  dtMISS:      36774
LLC LOAD         ACCESS:    1144912  HIT:    1013654  MISS:     131258  iACCESS:     463460  iHIT:     432046  iMISS:      31414  dACCESS:     681452  dHIT:     581608  dMISS:      99844  itACCESS:          0  itHIT:          0  itMISS:          0  dtACCESS:          0  dtHIT:          0  dtMISS:          0
LLC RFO          ACCESS:     122842  HIT:      88156  MISS:      34686  iACCESS:          0  iHIT:          0  iMISS:          0  dACCESS:     122842  dHIT:      88156  dMISS:      34686  itACCESS:          0  itHIT:          0  itMISS:          0  dtACCESS:          0  dtHIT:          0  dtMISS:          0
LLC PREFETCH     ACCESS:    2719374  HIT:    2342884  MISS:     376490  iACCESS:    1302008  iHIT:    1187484  iMISS:     114524  dACCESS:    1417366  dHIT:    1155400  dMISS:     261966  itACCESS:          0  itHIT:          0  itMISS:          0  dtACCESS:          0  dtHIT:          0  dtMISS:          0
LLC WRITE        ACCESS:     200593  HIT:     198605  MISS:       1988  iACCESS:          0  iHIT:          0  iMISS:          0  dACCESS:     200593  dHIT:     198605  dMISS:       1988  itACCESS:          0  itHIT:          0  itMISS:          0  dtACCESS:          0  dtHIT:          0  dtMISS:          0
LLC TRANSLATION  ACCESS:      54414  HIT:      14176  MISS:      40238  iACCESS:          0  iHIT:          0  iMISS:          0  dACCESS:          0  dHIT:          0  dMISS:          0  itACCESS:       6002  itHIT:       2538  itMISS:       3464  dtACCESS:      48412  dtHIT:      11638  dtMISS:      36774
LLC PREFETCH  REQUESTED:          0  ISSUED:          0  CROSSED:          0  USEFUL:          0  USELESS:          0
LLC AVERAGE iMISS LATENCY: 38.021 cycles
LLC AVERAGE dMISS LATENCY: 110.599 cycles
LLC AVERAGE itMISS LATENCY: 1.0386 cycles
LLC AVERAGE dtMISS LATENCY: 10.8433 cycles
LLC PAGE CROSSINGS (TLB HIT):         0 
LLC PAGE CROSSINGS (TLB MISS):         0 
LLC AVERAGE MISS LATENCY: 160.502 cycles

PageTableWalker TOTAL       ACCESS:      73224  
PageTableWalker AVERAGE LATENCY: 4.84993 cycles
PageTableWalker TOTAL LATENCY: 355131 cycles

DRAM Statistics
Channel 0
 RQ ROW_BUFFER_HIT:     145900
  ROW_BUFFER_MISS:     436687
 AVG DBUS CONGESTED CYCLE:    3.63386
 WQ ROW_BUFFER_HIT:      15653
  ROW_BUFFER_MISS:      26933  FULL:          0

