last_page:0x200000000000000
VMEM_RES_CAP:0x100000
PAGE_SIZE:4096
LOG2_PAGE_SIZE:12
LOG2_PAGE_TABLE_SIZE:9
page_table_levels:5
WARNING: physical memory size is smaller than virtual memory size
FDiP enabled with aggresivity 16

*** ChampSim Multicore Out-of-Order Simulator ***

Warmup Instructions: 50000000
Simulation Instructions: 100000000
Number of CPUs: 1
Small page size: 4096
Large page size: 2097152

CPU 0 Bimodal branch predictor
Basic BTB sets: 1024 ways: 8 indirect buffer size: 4096 RAS size: 64
Instruction page size distrubution: 0
Loading instruction page size distribution from /home/bsc/bsc018186/scratch/itp_asplos25_AE/dump/srv697_ap.pdst
Data page size distrubution: 0
Loading data page size distribution from /home/bsc/bsc018186/scratch/itp_asplos25_AE/dump/srv697_ap.pdst
cpu0_L2C IP-based stride prefetcher
cpu0_L2C is using xPTP/LRU
	TLB_LOWER_STRESS_THRESHOLD:1
	TLB_UPPER_STRESS_THRESHOLD:9
	MIN_EVICTION_POSITION:4
cpu0_L1D next line prefetcher
cpu0_STLB using iTP with max lru@8
cpu0_STLB using iTP with instr@0 and data@2
Init sat counter with 3 bits (max:50).
cpu0_L1I next line prefetcher
Off-chip DRAM Size: 4 GiB Channels: 1 Width: 64-bit Data Rate: 3200 MT/s
Heartbeat CPU 0 instructions: 10000000 cycles: 2500147 heartbeat IPC: 3.99977 cumulative IPC: 3.99977 (Simulation time: 0 hr 0 min 39 sec) 
Heartbeat CPU 0 instructions: 20000003 cycles: 5000193 heartbeat IPC: 3.99993 cumulative IPC: 3.99985 (Simulation time: 0 hr 1 min 20 sec) 
Heartbeat CPU 0 instructions: 30000000 cycles: 7500352 heartbeat IPC: 3.99975 cumulative IPC: 3.99982 (Simulation time: 0 hr 2 min 1 sec) 
Heartbeat CPU 0 instructions: 40000003 cycles: 10000397 heartbeat IPC: 3.99993 cumulative IPC: 3.99985 (Simulation time: 0 hr 2 min 42 sec) 
Heartbeat CPU 0 instructions: 50000003 cycles: 12500439 heartbeat IPC: 3.99994 cumulative IPC: 3.99986 (Simulation time: 0 hr 3 min 21 sec) 
Warmup finished CPU 0 instructions: 50000003 cycles: 12500440 cumulative IPC: 3.99986 (Simulation time: 0 hr 3 min 21 sec) 

Warmup complete CPU 0 instructions: 50000003 cycles: 12500440 (Simulation time: 0 hr 3 min 21 sec) 

Heartbeat CPU 0 instructions: 60000002 cycles: 25584606 heartbeat IPC: 0.764283 cumulative IPC: 0.764283 (Simulation time: 0 hr 4 min 25 sec) 
Heartbeat CPU 0 instructions: 70000000 cycles: 38006081 heartbeat IPC: 0.805058 cumulative IPC: 0.784141 (Simulation time: 0 hr 5 min 28 sec) 
Heartbeat CPU 0 instructions: 80000000 cycles: 51230196 heartbeat IPC: 0.756195 cumulative IPC: 0.774599 (Simulation time: 0 hr 6 min 31 sec) 
Heartbeat CPU 0 instructions: 90000002 cycles: 63817874 heartbeat IPC: 0.794428 cumulative IPC: 0.779463 (Simulation time: 0 hr 7 min 32 sec) 
Heartbeat CPU 0 instructions: 100000000 cycles: 76762788 heartbeat IPC: 0.772505 cumulative IPC: 0.778061 (Simulation time: 0 hr 8 min 36 sec) 
*** Reached end of trace: /gpfs/projects/bsc18/MN4/bsc18/romol/ChampSim/traces/qualcomm_srv/srv697_ap.champsimtrace.xz
Heartbeat CPU 0 instructions: 110000002 cycles: 89357009 heartbeat IPC: 0.794016 cumulative IPC: 0.780675 (Simulation time: 0 hr 9 min 39 sec) 
Heartbeat CPU 0 instructions: 120000000 cycles: 102134975 heartbeat IPC: 0.782598 cumulative IPC: 0.780949 (Simulation time: 0 hr 10 min 43 sec) 
Heartbeat CPU 0 instructions: 130000000 cycles: 115397068 heartbeat IPC: 0.754029 cumulative IPC: 0.77748 (Simulation time: 0 hr 11 min 50 sec) 
Heartbeat CPU 0 instructions: 140000003 cycles: 127803925 heartbeat IPC: 0.806007 cumulative IPC: 0.780549 (Simulation time: 0 hr 12 min 58 sec) 
Heartbeat CPU 0 instructions: 150000000 cycles: 140887275 heartbeat IPC: 0.764331 cumulative IPC: 0.778897 (Simulation time: 0 hr 14 min 7 sec) 
Simulation finished CPU 0 instructions: 100000000 cycles: 128386837 cumulative IPC: 0.778897 (Simulation time: 0 hr 14 min 7 sec) 

Simulation complete CPU 0 instructions: 100000000 cycles: 128386837 (Simulation time: 0 hr 14 min 7 sec) 


ChampSim completed all CPUs

Saving instructions large page distribution to /home/bsc/bsc018186/scratch/itp_asplos25_AE/dump/srv697_ap.pdst...
Saving data large page distribution to /home/bsc/bsc018186/scratch/itp_asplos25_AE/dump/srv697_ap.pdst...
=== Simulation ===
CPU 0 runs /gpfs/projects/bsc18/MN4/bsc18/romol/ChampSim/traces/qualcomm_srv/srv697_ap.champsimtrace.xz

Region of Interest Statistics

CPU 0 cumulative IPC: 0.778897 instructions: 100000000 cycles: 128386837
CPU 0 Branch Prediction Accuracy: 83.463% MPKI: 29.708 Average ROB Occupancy at Mispredict: 12.4362
Branch type MPKI
BRANCH_DIRECT_JUMP: 0.950821
BRANCH_INDIRECT: 15.4078
BRANCH_CONDITIONAL: 9.71742
BRANCH_DIRECT_CALL: 1.81125
BRANCH_INDIRECT_CALL: 0.500321
BRANCH_RETURN: 1.32041

Instructions large pages: 0
Instructions small pages: 9679
Large page distribution for instructions: 0%

Data large pages: 0
Data small pages: 8829
Large page distribution for data: 0%

cpu0_L1I TOTAL       ACCESS:   34780658  HIT:   26622040  MISS:    8158618  iACCESS:   34780658  iHIT:   26622040  iMISS:    8158618  dACCESS:          0  dHIT:          0  dMISS:          0  itACCESS:          0  itHIT:          0  itMISS:          0  dtACCESS:          0  dtHIT:          0  dtMISS:          0
cpu0_L1I LOAD         ACCESS:   10140961  HIT:    7851840  MISS:    2289121  iACCESS:   10140961  iHIT:    7851840  iMISS:    2289121  dACCESS:          0  dHIT:          0  dMISS:          0  itACCESS:          0  itHIT:          0  itMISS:          0  dtACCESS:          0  dtHIT:          0  dtMISS:          0
cpu0_L1I RFO          ACCESS:          0  HIT:          0  MISS:          0  iACCESS:          0  iHIT:          0  iMISS:          0  dACCESS:          0  dHIT:          0  dMISS:          0  itACCESS:          0  itHIT:          0  itMISS:          0  dtACCESS:          0  dtHIT:          0  dtMISS:          0
cpu0_L1I PREFETCH     ACCESS:   24639697  HIT:   18770200  MISS:    5869497  iACCESS:   24639697  iHIT:   18770200  iMISS:    5869497  dACCESS:          0  dHIT:          0  dMISS:          0  itACCESS:          0  itHIT:          0  itMISS:          0  dtACCESS:          0  dtHIT:          0  dtMISS:          0
cpu0_L1I WRITE        ACCESS:          0  HIT:          0  MISS:          0  iACCESS:          0  iHIT:          0  iMISS:          0  dACCESS:          0  dHIT:          0  dMISS:          0  itACCESS:          0  itHIT:          0  itMISS:          0  dtACCESS:          0  dtHIT:          0  dtMISS:          0
cpu0_L1I TRANSLATION  ACCESS:          0  HIT:          0  MISS:          0  iACCESS:          0  iHIT:          0  iMISS:          0  dACCESS:          0  dHIT:          0  dMISS:          0  itACCESS:          0  itHIT:          0  itMISS:          0  dtACCESS:          0  dtHIT:          0  dtMISS:          0
cpu0_L1I PREFETCH  REQUESTED:   27042053  ISSUED:   27041787  CROSSED:          0  USEFUL:    1935247  USELESS:     638780
cpu0_L1I AVERAGE iMISS LATENCY: 11.1154 cycles
cpu0_L1I AVERAGE dMISS LATENCY: 0 cycles
cpu0_L1I AVERAGE itMISS LATENCY: 0 cycles
cpu0_L1I AVERAGE dtMISS LATENCY: 0 cycles
cpu0_L1I PAGE CROSSINGS (TLB HIT):         0 
cpu0_L1I PAGE CROSSINGS (TLB MISS):         0 
cpu0_L1I AVERAGE MISS LATENCY: 11.1154 cycles
cpu0_ITLB TOTAL       ACCESS:   28967141  HIT:   26976202  MISS:    1990939  iACCESS:   28967141  iHIT:   26976202  iMISS:    1990939  dACCESS:          0  dHIT:          0  dMISS:          0  itACCESS:          0  itHIT:          0  itMISS:          0  dtACCESS:          0  dtHIT:          0  dtMISS:          0
cpu0_ITLB LOAD         ACCESS:   28967141  HIT:   26976202  MISS:    1990939  iACCESS:   28967141  iHIT:   26976202  iMISS:    1990939  dACCESS:          0  dHIT:          0  dMISS:          0  itACCESS:          0  itHIT:          0  itMISS:          0  dtACCESS:          0  dtHIT:          0  dtMISS:          0
cpu0_ITLB RFO          ACCESS:          0  HIT:          0  MISS:          0  iACCESS:          0  iHIT:          0  iMISS:          0  dACCESS:          0  dHIT:          0  dMISS:          0  itACCESS:          0  itHIT:          0  itMISS:          0  dtACCESS:          0  dtHIT:          0  dtMISS:          0
cpu0_ITLB PREFETCH     ACCESS:          0  HIT:          0  MISS:          0  iACCESS:          0  iHIT:          0  iMISS:          0  dACCESS:          0  dHIT:          0  dMISS:          0  itACCESS:          0  itHIT:          0  itMISS:          0  dtACCESS:          0  dtHIT:          0  dtMISS:          0
cpu0_ITLB WRITE        ACCESS:          0  HIT:          0  MISS:          0  iACCESS:          0  iHIT:          0  iMISS:          0  dACCESS:          0  dHIT:          0  dMISS:          0  itACCESS:          0  itHIT:          0  itMISS:          0  dtACCESS:          0  dtHIT:          0  dtMISS:          0
cpu0_ITLB TRANSLATION  ACCESS:          0  HIT:          0  MISS:          0  iACCESS:          0  iHIT:          0  iMISS:          0  dACCESS:          0  dHIT:          0  dMISS:          0  itACCESS:          0  itHIT:          0  itMISS:          0  dtACCESS:          0  dtHIT:          0  dtMISS:          0
cpu0_ITLB PREFETCH  REQUESTED:          0  ISSUED:          0  CROSSED:          0  USEFUL:     325770  USELESS:      63185
cpu0_ITLB AVERAGE iMISS LATENCY: 1.86655 cycles
cpu0_ITLB AVERAGE dMISS LATENCY: 0 cycles
cpu0_ITLB AVERAGE itMISS LATENCY: 0 cycles
cpu0_ITLB AVERAGE dtMISS LATENCY: 0 cycles
cpu0_ITLB PAGE CROSSINGS (TLB HIT):         0 
cpu0_ITLB PAGE CROSSINGS (TLB MISS):         0 
cpu0_ITLB AVERAGE MISS LATENCY: 1.86655 cycles
cpu0_DTLB TOTAL       ACCESS:   27737643  HIT:   25702683  MISS:    2034960  iACCESS:          0  iHIT:          0  iMISS:          0  dACCESS:   27737643  dHIT:   25702683  dMISS:    2034960  itACCESS:          0  itHIT:          0  itMISS:          0  dtACCESS:          0  dtHIT:          0  dtMISS:          0
cpu0_DTLB LOAD         ACCESS:   27737643  HIT:   25702683  MISS:    2034960  iACCESS:          0  iHIT:          0  iMISS:          0  dACCESS:   27737643  dHIT:   25702683  dMISS:    2034960  itACCESS:          0  itHIT:          0  itMISS:          0  dtACCESS:          0  dtHIT:          0  dtMISS:          0
cpu0_DTLB RFO          ACCESS:          0  HIT:          0  MISS:          0  iACCESS:          0  iHIT:          0  iMISS:          0  dACCESS:          0  dHIT:          0  dMISS:          0  itACCESS:          0  itHIT:          0  itMISS:          0  dtACCESS:          0  dtHIT:          0  dtMISS:          0
cpu0_DTLB PREFETCH     ACCESS:          0  HIT:          0  MISS:          0  iACCESS:          0  iHIT:          0  iMISS:          0  dACCESS:          0  dHIT:          0  dMISS:          0  itACCESS:          0  itHIT:          0  itMISS:          0  dtACCESS:          0  dtHIT:          0  dtMISS:          0
cpu0_DTLB WRITE        ACCESS:          0  HIT:          0  MISS:          0  iACCESS:          0  iHIT:          0  iMISS:          0  dACCESS:          0  dHIT:          0  dMISS:          0  itACCESS:          0  itHIT:          0  itMISS:          0  dtACCESS:          0  dtHIT:          0  dtMISS:          0
cpu0_DTLB TRANSLATION  ACCESS:          0  HIT:          0  MISS:          0  iACCESS:          0  iHIT:          0  iMISS:          0  dACCESS:          0  dHIT:          0  dMISS:          0  itACCESS:          0  itHIT:          0  itMISS:          0  dtACCESS:          0  dtHIT:          0  dtMISS:          0
cpu0_DTLB PREFETCH  REQUESTED:          0  ISSUED:          0  CROSSED:          0  USEFUL:          0  USELESS:          0
cpu0_DTLB AVERAGE iMISS LATENCY: 0 cycles
cpu0_DTLB AVERAGE dMISS LATENCY: 10.2048 cycles
cpu0_DTLB AVERAGE itMISS LATENCY: 0 cycles
cpu0_DTLB AVERAGE dtMISS LATENCY: 0 cycles
cpu0_DTLB PAGE CROSSINGS (TLB HIT):         0 
cpu0_DTLB PAGE CROSSINGS (TLB MISS):         0 
cpu0_DTLB AVERAGE MISS LATENCY: 10.2048 cycles
cpu0_STLB TOTAL       ACCESS:    1631269  HIT:    1498657  MISS:     132612  iACCESS:     388973  iHIT:     382139  iMISS:       6834  dACCESS:    1242296  dHIT:    1116518  dMISS:     125778  itACCESS:          0  itHIT:          0  itMISS:          0  dtACCESS:          0  dtHIT:          0  dtMISS:          0
cpu0_STLB LOAD         ACCESS:    1631269  HIT:    1498657  MISS:     132612  iACCESS:     388973  iHIT:     382139  iMISS:       6834  dACCESS:    1242296  dHIT:    1116518  dMISS:     125778  itACCESS:          0  itHIT:          0  itMISS:          0  dtACCESS:          0  dtHIT:          0  dtMISS:          0
cpu0_STLB RFO          ACCESS:          0  HIT:          0  MISS:          0  iACCESS:          0  iHIT:          0  iMISS:          0  dACCESS:          0  dHIT:          0  dMISS:          0  itACCESS:          0  itHIT:          0  itMISS:          0  dtACCESS:          0  dtHIT:          0  dtMISS:          0
cpu0_STLB PREFETCH     ACCESS:          0  HIT:          0  MISS:          0  iACCESS:          0  iHIT:          0  iMISS:          0  dACCESS:          0  dHIT:          0  dMISS:          0  itACCESS:          0  itHIT:          0  itMISS:          0  dtACCESS:          0  dtHIT:          0  dtMISS:          0
cpu0_STLB WRITE        ACCESS:          0  HIT:          0  MISS:          0  iACCESS:          0  iHIT:          0  iMISS:          0  dACCESS:          0  dHIT:          0  dMISS:          0  itACCESS:          0  itHIT:          0  itMISS:          0  dtACCESS:          0  dtHIT:          0  dtMISS:          0
cpu0_STLB TRANSLATION  ACCESS:          0  HIT:          0  MISS:          0  iACCESS:          0  iHIT:          0  iMISS:          0  dACCESS:          0  dHIT:          0  dMISS:          0  itACCESS:          0  itHIT:          0  itMISS:          0  dtACCESS:          0  dtHIT:          0  dtMISS:          0
cpu0_STLB PREFETCH  REQUESTED:          0  ISSUED:          0  CROSSED:          0  USEFUL:          0  USELESS:          0
cpu0_STLB AVERAGE iMISS LATENCY: 5.27141 cycles
cpu0_STLB AVERAGE dMISS LATENCY: 81.857 cycles
cpu0_STLB AVERAGE itMISS LATENCY: 0 cycles
cpu0_STLB AVERAGE dtMISS LATENCY: 0 cycles
cpu0_STLB PAGE CROSSINGS (TLB HIT):         0 
cpu0_STLB PAGE CROSSINGS (TLB MISS):         0 
cpu0_STLB AVERAGE MISS LATENCY: 87.1284 cycles
cpu0_L1D TOTAL       ACCESS:   41463412  HIT:   37969583  MISS:    3493829  iACCESS:          0  iHIT:          0  iMISS:          0  dACCESS:   41266566  dHIT:   37957324  dMISS:    3309242  itACCESS:       8211  itHIT:        682  itMISS:       7529  dtACCESS:     188635  dtHIT:      11577  dtMISS:     177058
cpu0_L1D LOAD         ACCESS:   18943755  HIT:   17433659  MISS:    1510096  iACCESS:          0  iHIT:          0  iMISS:          0  dACCESS:   18943755  dHIT:   17433659  dMISS:    1510096  itACCESS:          0  itHIT:          0  itMISS:          0  dtACCESS:          0  dtHIT:          0  dtMISS:          0
cpu0_L1D RFO          ACCESS:          0  HIT:          0  MISS:          0  iACCESS:          0  iHIT:          0  iMISS:          0  dACCESS:          0  dHIT:          0  dMISS:          0  itACCESS:          0  itHIT:          0  itMISS:          0  dtACCESS:          0  dtHIT:          0  dtMISS:          0
cpu0_L1D PREFETCH     ACCESS:   12163181  HIT:   10804200  MISS:    1358981  iACCESS:          0  iHIT:          0  iMISS:          0  dACCESS:   12163181  dHIT:   10804200  dMISS:    1358981  itACCESS:          0  itHIT:          0  itMISS:          0  dtACCESS:          0  dtHIT:          0  dtMISS:          0
cpu0_L1D WRITE        ACCESS:   10159630  HIT:    9719465  MISS:     440165  iACCESS:          0  iHIT:          0  iMISS:          0  dACCESS:   10159630  dHIT:    9719465  dMISS:     440165  itACCESS:          0  itHIT:          0  itMISS:          0  dtACCESS:          0  dtHIT:          0  dtMISS:          0
cpu0_L1D TRANSLATION  ACCESS:     196846  HIT:      12259  MISS:     184587  iACCESS:          0  iHIT:          0  iMISS:          0  dACCESS:          0  dHIT:          0  dMISS:          0  itACCESS:       8211  itHIT:        682  itMISS:       7529  dtACCESS:     188635  dtHIT:      11577  dtMISS:     177058
cpu0_L1D PREFETCH  REQUESTED:   18943755  ISSUED:   16975366  CROSSED:          0  USEFUL:     308639  USELESS:     699626
cpu0_L1D AVERAGE iMISS LATENCY: 0 cycles
cpu0_L1D AVERAGE dMISS LATENCY: 28.5635 cycles
cpu0_L1D AVERAGE itMISS LATENCY: 0.178971 cycles
cpu0_L1D AVERAGE dtMISS LATENCY: 2.41698 cycles
cpu0_L1D PAGE CROSSINGS (TLB HIT):         0 
cpu0_L1D PAGE CROSSINGS (TLB MISS):         0 
cpu0_L1D AVERAGE MISS LATENCY: 31.1594 cycles
cpu0_L2C TOTAL       ACCESS:    6984068  HIT:    2660077  MISS:    4323991  iACCESS:    3329014  iHIT:    1499080  iMISS:    1829934  dACCESS:    3480218  dHIT:    1037850  dMISS:    2442368  itACCESS:       7479  itHIT:       2837  itMISS:       4642  dtACCESS:     167357  dtHIT:     120310  dtMISS:      47047
cpu0_L2C LOAD         ACCESS:    1727734  HIT:     594689  MISS:    1133045  iACCESS:     796151  iHIT:     337701  iMISS:     458450  dACCESS:     931583  dHIT:     256988  dMISS:     674595  itACCESS:          0  itHIT:          0  itMISS:          0  dtACCESS:          0  dtHIT:          0  dtMISS:          0
cpu0_L2C RFO          ACCESS:     155317  HIT:      34425  MISS:     120892  iACCESS:          0  iHIT:          0  iMISS:          0  dACCESS:     155317  dHIT:      34425  dMISS:     120892  itACCESS:          0  itHIT:          0  itMISS:          0  dtACCESS:          0  dtHIT:          0  dtMISS:          0
cpu0_L2C PREFETCH     ACCESS:    4643094  HIT:    1782400  MISS:    2860694  iACCESS:    2532863  iHIT:    1161379  iMISS:    1371484  dACCESS:    2110231  dHIT:     621021  dMISS:    1489210  itACCESS:          0  itHIT:          0  itMISS:          0  dtACCESS:          0  dtHIT:          0  dtMISS:          0
cpu0_L2C WRITE        ACCESS:     283087  HIT:     125416  MISS:     157671  iACCESS:          0  iHIT:          0  iMISS:          0  dACCESS:     283087  dHIT:     125416  dMISS:     157671  itACCESS:          0  itHIT:          0  itMISS:          0  dtACCESS:          0  dtHIT:          0  dtMISS:          0
cpu0_L2C TRANSLATION  ACCESS:     174836  HIT:     123147  MISS:      51689  iACCESS:          0  iHIT:          0  iMISS:          0  dACCESS:          0  dHIT:          0  dMISS:          0  itACCESS:       7479  itHIT:       2837  itMISS:       4642  dtACCESS:     167357  dtHIT:     120310  dtMISS:      47047
cpu0_L2C PREFETCH  REQUESTED:    1382215  ISSUED:    1382215  CROSSED:          0  USEFUL:     354715  USELESS:     323227
cpu0_L2C AVERAGE iMISS LATENCY: 13.8473 cycles
cpu0_L2C AVERAGE dMISS LATENCY: 25.4988 cycles
cpu0_L2C AVERAGE itMISS LATENCY: 0.127933 cycles
cpu0_L2C AVERAGE dtMISS LATENCY: 1.59155 cycles
cpu0_L2C PAGE CROSSINGS (TLB HIT):         0 
cpu0_L2C PAGE CROSSINGS (TLB MISS):         0 
cpu0_L2C AVERAGE MISS LATENCY: 41.0656 cycles
LLC TOTAL       ACCESS:    4280642  HIT:    3663864  MISS:     616778  iACCESS:    1783948  iHIT:    1614101  iMISS:     169847  dACCESS:    2445005  dHIT:    2034849  dMISS:     410156  itACCESS:       4642  itHIT:       2028  itMISS:       2614  dtACCESS:      47047  dtHIT:      12886  dtMISS:      34161
LLC LOAD         ACCESS:    1131160  HIT:     995236  MISS:     135924  iACCESS:     456805  iHIT:     421054  iMISS:      35751  dACCESS:     674355  dHIT:     574182  dMISS:     100173  itACCESS:          0  itHIT:          0  itMISS:          0  dtACCESS:          0  dtHIT:          0  dtMISS:          0
LLC RFO          ACCESS:     120861  HIT:      87096  MISS:      33765  iACCESS:          0  iHIT:          0  iMISS:          0  dACCESS:     120861  dHIT:      87096  dMISS:      33765  itACCESS:          0  itHIT:          0  itMISS:          0  dtACCESS:          0  dtHIT:          0  dtMISS:          0
LLC PREFETCH     ACCESS:    2774774  HIT:    2366151  MISS:     408623  iACCESS:    1327143  iHIT:    1193047  iMISS:     134096  dACCESS:    1447631  dHIT:    1173104  dMISS:     274527  itACCESS:          0  itHIT:          0  itMISS:          0  dtACCESS:          0  dtHIT:          0  dtMISS:          0
LLC WRITE        ACCESS:     202158  HIT:     200467  MISS:       1691  iACCESS:          0  iHIT:          0  iMISS:          0  dACCESS:     202158  dHIT:     200467  dMISS:       1691  itACCESS:          0  itHIT:          0  itMISS:          0  dtACCESS:          0  dtHIT:          0  dtMISS:          0
LLC TRANSLATION  ACCESS:      51689  HIT:      14914  MISS:      36775  iACCESS:          0  iHIT:          0  iMISS:          0  dACCESS:          0  dHIT:          0  dMISS:          0  itACCESS:       4642  itHIT:       2028  itMISS:       2614  dtACCESS:      47047  dtHIT:      12886  dtMISS:      34161
LLC PREFETCH  REQUESTED:          0  ISSUED:          0  CROSSED:          0  USEFUL:          0  USELESS:          0
LLC AVERAGE iMISS LATENCY: 41.3041 cycles
LLC AVERAGE dMISS LATENCY: 108.519 cycles
LLC AVERAGE itMISS LATENCY: 0.749964 cycles
LLC AVERAGE dtMISS LATENCY: 9.65696 cycles
LLC PAGE CROSSINGS (TLB HIT):         0 
LLC PAGE CROSSINGS (TLB MISS):         0 
LLC AVERAGE MISS LATENCY: 160.23 cycles

PageTableWalker TOTAL       ACCESS:      66643  
PageTableWalker AVERAGE LATENCY: 4.64001 cycles
PageTableWalker TOTAL LATENCY: 309224 cycles

DRAM Statistics
Channel 0
 RQ ROW_BUFFER_HIT:     155559
  ROW_BUFFER_MISS:     459494
 AVG DBUS CONGESTED CYCLE:    3.65109
 WQ ROW_BUFFER_HIT:      15257
  ROW_BUFFER_MISS:      27741  FULL:          0

