last_page:0x200000000000000
VMEM_RES_CAP:0x100000
PAGE_SIZE:4096
LOG2_PAGE_SIZE:12
LOG2_PAGE_TABLE_SIZE:9
page_table_levels:5
WARNING: physical memory size is smaller than virtual memory size
FDiP enabled with aggresivity 16

*** ChampSim Multicore Out-of-Order Simulator ***

Warmup Instructions: 50000000
Simulation Instructions: 100000000
Number of CPUs: 1
Small page size: 4096
Large page size: 2097152

CPU 0 Bimodal branch predictor
Basic BTB sets: 1024 ways: 8 indirect buffer size: 4096 RAS size: 64
Instruction page size distrubution: 0
Loading instruction page size distribution from /home/bsc/bsc018186/scratch/itp_asplos25_AE/dump/srv669_ap.pdst
Data page size distrubution: 0
Loading data page size distribution from /home/bsc/bsc018186/scratch/itp_asplos25_AE/dump/srv669_ap.pdst
cpu0_L2C IP-based stride prefetcher
cpu0_L1D next line prefetcher
cpu0_STLB using iTP with max lru@8
cpu0_STLB using iTP with instr@0 and data@2
Init sat counter with 3 bits (max:50).
cpu0_L1I next line prefetcher
Off-chip DRAM Size: 4 GiB Channels: 1 Width: 64-bit Data Rate: 3200 MT/s
Heartbeat CPU 0 instructions: 10000002 cycles: 2911215 heartbeat IPC: 3.435 cumulative IPC: 3.435 (Simulation time: 0 hr 0 min 38 sec) 
Heartbeat CPU 0 instructions: 20000002 cycles: 5592780 heartbeat IPC: 3.72917 cumulative IPC: 3.57604 (Simulation time: 0 hr 1 min 18 sec) 
Heartbeat CPU 0 instructions: 30000001 cycles: 8092812 heartbeat IPC: 3.99995 cumulative IPC: 3.707 (Simulation time: 0 hr 1 min 59 sec) 
Heartbeat CPU 0 instructions: 40000003 cycles: 10592907 heartbeat IPC: 3.99985 cumulative IPC: 3.77612 (Simulation time: 0 hr 2 min 40 sec) 
Heartbeat CPU 0 instructions: 50000003 cycles: 13093013 heartbeat IPC: 3.99984 cumulative IPC: 3.81884 (Simulation time: 0 hr 3 min 20 sec) 
Warmup finished CPU 0 instructions: 50000003 cycles: 13093014 cumulative IPC: 3.81884 (Simulation time: 0 hr 3 min 20 sec) 

Warmup complete CPU 0 instructions: 50000003 cycles: 13093014 (Simulation time: 0 hr 3 min 20 sec) 

Heartbeat CPU 0 instructions: 60000000 cycles: 33131342 heartbeat IPC: 0.499044 cumulative IPC: 0.499044 (Simulation time: 0 hr 4 min 32 sec) 
Heartbeat CPU 0 instructions: 70000001 cycles: 52773495 heartbeat IPC: 0.50911 cumulative IPC: 0.504027 (Simulation time: 0 hr 5 min 43 sec) 
Heartbeat CPU 0 instructions: 80000004 cycles: 72657044 heartbeat IPC: 0.502929 cumulative IPC: 0.50366 (Simulation time: 0 hr 6 min 55 sec) 
Heartbeat CPU 0 instructions: 90000001 cycles: 92053725 heartbeat IPC: 0.515552 cumulative IPC: 0.506582 (Simulation time: 0 hr 8 min 6 sec) 
Heartbeat CPU 0 instructions: 100000000 cycles: 111545960 heartbeat IPC: 0.513025 cumulative IPC: 0.507857 (Simulation time: 0 hr 9 min 17 sec) 
*** Reached end of trace: /gpfs/projects/bsc18/MN4/bsc18/romol/ChampSim/traces/qualcomm_srv/srv669_ap.champsimtrace.xz
Heartbeat CPU 0 instructions: 110000002 cycles: 125757830 heartbeat IPC: 0.703638 cumulative IPC: 0.532554 (Simulation time: 0 hr 10 min 23 sec) 
Heartbeat CPU 0 instructions: 120000004 cycles: 136518903 heartbeat IPC: 0.929276 cumulative IPC: 0.567142 (Simulation time: 0 hr 11 min 25 sec) 
Heartbeat CPU 0 instructions: 130000002 cycles: 156072925 heartbeat IPC: 0.511404 cumulative IPC: 0.55952 (Simulation time: 0 hr 12 min 37 sec) 
Heartbeat CPU 0 instructions: 140000000 cycles: 175105897 heartbeat IPC: 0.525404 cumulative IPC: 0.555512 (Simulation time: 0 hr 13 min 48 sec) 
Heartbeat CPU 0 instructions: 150000001 cycles: 194316300 heartbeat IPC: 0.520552 cumulative IPC: 0.551806 (Simulation time: 0 hr 14 min 58 sec) 
Simulation finished CPU 0 instructions: 100000001 cycles: 181223289 cumulative IPC: 0.551806 (Simulation time: 0 hr 14 min 58 sec) 

Simulation complete CPU 0 instructions: 100000001 cycles: 181223289 (Simulation time: 0 hr 14 min 58 sec) 


ChampSim completed all CPUs

Saving instructions large page distribution to /home/bsc/bsc018186/scratch/itp_asplos25_AE/dump/srv669_ap.pdst...
Saving data large page distribution to /home/bsc/bsc018186/scratch/itp_asplos25_AE/dump/srv669_ap.pdst...
=== Simulation ===
CPU 0 runs /gpfs/projects/bsc18/MN4/bsc18/romol/ChampSim/traces/qualcomm_srv/srv669_ap.champsimtrace.xz

Region of Interest Statistics

CPU 0 cumulative IPC: 0.551806 instructions: 100000001 cycles: 181223289
CPU 0 Branch Prediction Accuracy: 82.4556% MPKI: 34.0984 Average ROB Occupancy at Mispredict: 12.1253
Branch type MPKI
BRANCH_DIRECT_JUMP: 1.26123
BRANCH_INDIRECT: 17.3427
BRANCH_CONDITIONAL: 10.7825
BRANCH_DIRECT_CALL: 2.39194
BRANCH_INDIRECT_CALL: 0.68075
BRANCH_RETURN: 1.63937

Instructions large pages: 0
Instructions small pages: 1178
Large page distribution for instructions: 0%

Data large pages: 0
Data small pages: 5539
Large page distribution for data: 0%

cpu0_L1I TOTAL       ACCESS:   35664409  HIT:   28123682  MISS:    7540727  iACCESS:   35664409  iHIT:   28123682  iMISS:    7540727  dACCESS:          0  dHIT:          0  dMISS:          0  itACCESS:          0  itHIT:          0  itMISS:          0  dtACCESS:          0  dtHIT:          0  dtMISS:          0
cpu0_L1I LOAD         ACCESS:    9600535  HIT:    7535046  MISS:    2065489  iACCESS:    9600535  iHIT:    7535046  iMISS:    2065489  dACCESS:          0  dHIT:          0  dMISS:          0  itACCESS:          0  itHIT:          0  itMISS:          0  dtACCESS:          0  dtHIT:          0  dtMISS:          0
cpu0_L1I RFO          ACCESS:          0  HIT:          0  MISS:          0  iACCESS:          0  iHIT:          0  iMISS:          0  dACCESS:          0  dHIT:          0  dMISS:          0  itACCESS:          0  itHIT:          0  itMISS:          0  dtACCESS:          0  dtHIT:          0  dtMISS:          0
cpu0_L1I PREFETCH     ACCESS:   26063874  HIT:   20588636  MISS:    5475238  iACCESS:   26063874  iHIT:   20588636  iMISS:    5475238  dACCESS:          0  dHIT:          0  dMISS:          0  itACCESS:          0  itHIT:          0  itMISS:          0  dtACCESS:          0  dtHIT:          0  dtMISS:          0
cpu0_L1I WRITE        ACCESS:          0  HIT:          0  MISS:          0  iACCESS:          0  iHIT:          0  iMISS:          0  dACCESS:          0  dHIT:          0  dMISS:          0  itACCESS:          0  itHIT:          0  itMISS:          0  dtACCESS:          0  dtHIT:          0  dtMISS:          0
cpu0_L1I TRANSLATION  ACCESS:          0  HIT:          0  MISS:          0  iACCESS:          0  iHIT:          0  iMISS:          0  dACCESS:          0  dHIT:          0  dMISS:          0  itACCESS:          0  itHIT:          0  itMISS:          0  dtACCESS:          0  dtHIT:          0  dtMISS:          0
cpu0_L1I PREFETCH  REQUESTED:   28190569  ISSUED:   28189322  CROSSED:          0  USEFUL:    1810829  USELESS:     597883
cpu0_L1I AVERAGE iMISS LATENCY: 20.1192 cycles
cpu0_L1I AVERAGE dMISS LATENCY: 0 cycles
cpu0_L1I AVERAGE itMISS LATENCY: 0 cycles
cpu0_L1I AVERAGE dtMISS LATENCY: 0 cycles
cpu0_L1I PAGE CROSSINGS (TLB HIT):         0 
cpu0_L1I PAGE CROSSINGS (TLB MISS):         0 
cpu0_L1I AVERAGE MISS LATENCY: 20.1192 cycles
cpu0_ITLB TOTAL       ACCESS:   29880327  HIT:   28149062  MISS:    1731265  iACCESS:   29880327  iHIT:   28149062  iMISS:    1731265  dACCESS:          0  dHIT:          0  dMISS:          0  itACCESS:          0  itHIT:          0  itMISS:          0  dtACCESS:          0  dtHIT:          0  dtMISS:          0
cpu0_ITLB LOAD         ACCESS:   29880327  HIT:   28149062  MISS:    1731265  iACCESS:   29880327  iHIT:   28149062  iMISS:    1731265  dACCESS:          0  dHIT:          0  dMISS:          0  itACCESS:          0  itHIT:          0  itMISS:          0  dtACCESS:          0  dtHIT:          0  dtMISS:          0
cpu0_ITLB RFO          ACCESS:          0  HIT:          0  MISS:          0  iACCESS:          0  iHIT:          0  iMISS:          0  dACCESS:          0  dHIT:          0  dMISS:          0  itACCESS:          0  itHIT:          0  itMISS:          0  dtACCESS:          0  dtHIT:          0  dtMISS:          0
cpu0_ITLB PREFETCH     ACCESS:          0  HIT:          0  MISS:          0  iACCESS:          0  iHIT:          0  iMISS:          0  dACCESS:          0  dHIT:          0  dMISS:          0  itACCESS:          0  itHIT:          0  itMISS:          0  dtACCESS:          0  dtHIT:          0  dtMISS:          0
cpu0_ITLB WRITE        ACCESS:          0  HIT:          0  MISS:          0  iACCESS:          0  iHIT:          0  iMISS:          0  dACCESS:          0  dHIT:          0  dMISS:          0  itACCESS:          0  itHIT:          0  itMISS:          0  dtACCESS:          0  dtHIT:          0  dtMISS:          0
cpu0_ITLB TRANSLATION  ACCESS:          0  HIT:          0  MISS:          0  iACCESS:          0  iHIT:          0  iMISS:          0  dACCESS:          0  dHIT:          0  dMISS:          0  itACCESS:          0  itHIT:          0  itMISS:          0  dtACCESS:          0  dtHIT:          0  dtMISS:          0
cpu0_ITLB PREFETCH  REQUESTED:          0  ISSUED:          0  CROSSED:          0  USEFUL:     297872  USELESS:      59657
cpu0_ITLB AVERAGE iMISS LATENCY: 3.15704 cycles
cpu0_ITLB AVERAGE dMISS LATENCY: 0 cycles
cpu0_ITLB AVERAGE itMISS LATENCY: 0 cycles
cpu0_ITLB AVERAGE dtMISS LATENCY: 0 cycles
cpu0_ITLB PAGE CROSSINGS (TLB HIT):         0 
cpu0_ITLB PAGE CROSSINGS (TLB MISS):         0 
cpu0_ITLB AVERAGE MISS LATENCY: 3.15704 cycles
cpu0_DTLB TOTAL       ACCESS:   29994157  HIT:   25824297  MISS:    4169860  iACCESS:          0  iHIT:          0  iMISS:          0  dACCESS:   29994157  dHIT:   25824297  dMISS:    4169860  itACCESS:          0  itHIT:          0  itMISS:          0  dtACCESS:          0  dtHIT:          0  dtMISS:          0
cpu0_DTLB LOAD         ACCESS:   29994157  HIT:   25824297  MISS:    4169860  iACCESS:          0  iHIT:          0  iMISS:          0  dACCESS:   29994157  dHIT:   25824297  dMISS:    4169860  itACCESS:          0  itHIT:          0  itMISS:          0  dtACCESS:          0  dtHIT:          0  dtMISS:          0
cpu0_DTLB RFO          ACCESS:          0  HIT:          0  MISS:          0  iACCESS:          0  iHIT:          0  iMISS:          0  dACCESS:          0  dHIT:          0  dMISS:          0  itACCESS:          0  itHIT:          0  itMISS:          0  dtACCESS:          0  dtHIT:          0  dtMISS:          0
cpu0_DTLB PREFETCH     ACCESS:          0  HIT:          0  MISS:          0  iACCESS:          0  iHIT:          0  iMISS:          0  dACCESS:          0  dHIT:          0  dMISS:          0  itACCESS:          0  itHIT:          0  itMISS:          0  dtACCESS:          0  dtHIT:          0  dtMISS:          0
cpu0_DTLB WRITE        ACCESS:          0  HIT:          0  MISS:          0  iACCESS:          0  iHIT:          0  iMISS:          0  dACCESS:          0  dHIT:          0  dMISS:          0  itACCESS:          0  itHIT:          0  itMISS:          0  dtACCESS:          0  dtHIT:          0  dtMISS:          0
cpu0_DTLB TRANSLATION  ACCESS:          0  HIT:          0  MISS:          0  iACCESS:          0  iHIT:          0  iMISS:          0  dACCESS:          0  dHIT:          0  dMISS:          0  itACCESS:          0  itHIT:          0  itMISS:          0  dtACCESS:          0  dtHIT:          0  dtMISS:          0
cpu0_DTLB PREFETCH  REQUESTED:          0  ISSUED:          0  CROSSED:          0  USEFUL:          0  USELESS:          0
cpu0_DTLB AVERAGE iMISS LATENCY: 0 cycles
cpu0_DTLB AVERAGE dMISS LATENCY: 8.25596 cycles
cpu0_DTLB AVERAGE itMISS LATENCY: 0 cycles
cpu0_DTLB AVERAGE dtMISS LATENCY: 0 cycles
cpu0_DTLB PAGE CROSSINGS (TLB HIT):         0 
cpu0_DTLB PAGE CROSSINGS (TLB MISS):         0 
cpu0_DTLB AVERAGE MISS LATENCY: 8.25596 cycles
cpu0_STLB TOTAL       ACCESS:    2584070  HIT:    2385385  MISS:     198685  iACCESS:     357534  iHIT:     327278  iMISS:      30256  dACCESS:    2226536  dHIT:    2058107  dMISS:     168429  itACCESS:          0  itHIT:          0  itMISS:          0  dtACCESS:          0  dtHIT:          0  dtMISS:          0
cpu0_STLB LOAD         ACCESS:    2584070  HIT:    2385385  MISS:     198685  iACCESS:     357534  iHIT:     327278  iMISS:      30256  dACCESS:    2226536  dHIT:    2058107  dMISS:     168429  itACCESS:          0  itHIT:          0  itMISS:          0  dtACCESS:          0  dtHIT:          0  dtMISS:          0
cpu0_STLB RFO          ACCESS:          0  HIT:          0  MISS:          0  iACCESS:          0  iHIT:          0  iMISS:          0  dACCESS:          0  dHIT:          0  dMISS:          0  itACCESS:          0  itHIT:          0  itMISS:          0  dtACCESS:          0  dtHIT:          0  dtMISS:          0
cpu0_STLB PREFETCH     ACCESS:          0  HIT:          0  MISS:          0  iACCESS:          0  iHIT:          0  iMISS:          0  dACCESS:          0  dHIT:          0  dMISS:          0  itACCESS:          0  itHIT:          0  itMISS:          0  dtACCESS:          0  dtHIT:          0  dtMISS:          0
cpu0_STLB WRITE        ACCESS:          0  HIT:          0  MISS:          0  iACCESS:          0  iHIT:          0  iMISS:          0  dACCESS:          0  dHIT:          0  dMISS:          0  itACCESS:          0  itHIT:          0  itMISS:          0  dtACCESS:          0  dtHIT:          0  dtMISS:          0
cpu0_STLB TRANSLATION  ACCESS:          0  HIT:          0  MISS:          0  iACCESS:          0  iHIT:          0  iMISS:          0  dACCESS:          0  dHIT:          0  dMISS:          0  itACCESS:          0  itHIT:          0  itMISS:          0  dtACCESS:          0  dtHIT:          0  dtMISS:          0
cpu0_STLB PREFETCH  REQUESTED:          0  ISSUED:          0  CROSSED:          0  USEFUL:          0  USELESS:          0
cpu0_STLB AVERAGE iMISS LATENCY: 13.4392 cycles
cpu0_STLB AVERAGE dMISS LATENCY: 82.547 cycles
cpu0_STLB AVERAGE itMISS LATENCY: 0 cycles
cpu0_STLB AVERAGE dtMISS LATENCY: 0 cycles
cpu0_STLB PAGE CROSSINGS (TLB HIT):         0 
cpu0_STLB PAGE CROSSINGS (TLB MISS):         0 
cpu0_STLB AVERAGE MISS LATENCY: 95.9861 cycles
cpu0_L1D TOTAL       ACCESS:   46246403  HIT:   39318744  MISS:    6927659  iACCESS:          0  iHIT:          0  iMISS:          0  dACCESS:   45975025  dHIT:   39302380  dMISS:    6672645  itACCESS:      34191  itHIT:       2678  itMISS:      31513  dtACCESS:     237187  dtHIT:      13686  dtMISS:     223501
cpu0_L1D LOAD         ACCESS:   22169946  HIT:   18388171  MISS:    3781775  iACCESS:          0  iHIT:          0  iMISS:          0  dACCESS:   22169946  dHIT:   18388171  dMISS:    3781775  itACCESS:          0  itHIT:          0  itMISS:          0  dtACCESS:          0  dtHIT:          0  dtMISS:          0
cpu0_L1D RFO          ACCESS:          0  HIT:          0  MISS:          0  iACCESS:          0  iHIT:          0  iMISS:          0  dACCESS:          0  dHIT:          0  dMISS:          0  itACCESS:          0  itHIT:          0  itMISS:          0  dtACCESS:          0  dtHIT:          0  dtMISS:          0
cpu0_L1D PREFETCH     ACCESS:   13927289  HIT:   11465122  MISS:    2462167  iACCESS:          0  iHIT:          0  iMISS:          0  dACCESS:   13927289  dHIT:   11465122  dMISS:    2462167  itACCESS:          0  itHIT:          0  itMISS:          0  dtACCESS:          0  dtHIT:          0  dtMISS:          0
cpu0_L1D WRITE        ACCESS:    9877790  HIT:    9449087  MISS:     428703  iACCESS:          0  iHIT:          0  iMISS:          0  dACCESS:    9877790  dHIT:    9449087  dMISS:     428703  itACCESS:          0  itHIT:          0  itMISS:          0  dtACCESS:          0  dtHIT:          0  dtMISS:          0
cpu0_L1D TRANSLATION  ACCESS:     271378  HIT:      16364  MISS:     255014  iACCESS:          0  iHIT:          0  iMISS:          0  dACCESS:          0  dHIT:          0  dMISS:          0  itACCESS:      34191  itHIT:       2678  itMISS:      31513  dtACCESS:     237187  dtHIT:      13686  dtMISS:     223501
cpu0_L1D PREFETCH  REQUESTED:   22169946  ISSUED:   17660929  CROSSED:          0  USEFUL:     275882  USELESS:     819041
cpu0_L1D AVERAGE iMISS LATENCY: 0 cycles
cpu0_L1D AVERAGE dMISS LATENCY: 27.6529 cycles
cpu0_L1D AVERAGE itMISS LATENCY: 0.342265 cycles
cpu0_L1D AVERAGE dtMISS LATENCY: 2.02365 cycles
cpu0_L1D PAGE CROSSINGS (TLB HIT):         0 
cpu0_L1D PAGE CROSSINGS (TLB MISS):         0 
cpu0_L1D AVERAGE MISS LATENCY: 30.0188 cycles
cpu0_L2C TOTAL       ACCESS:    8326152  HIT:    2297759  MISS:    6028393  iACCESS:    3066812  iHIT:     766696  iMISS:    2300116  dACCESS:    5014586  dHIT:    1396910  dMISS:    3617676  itACCESS:      31513  itHIT:      17473  itMISS:      14040  dtACCESS:     213241  dtHIT:     116680  dtMISS:      96561
cpu0_L2C LOAD         ACCESS:    3037495  HIT:     928607  MISS:    2108888  iACCESS:     690626  iHIT:     133766  iMISS:     556860  dACCESS:    2346869  dHIT:     794841  dMISS:    1552028  itACCESS:          0  itHIT:          0  itMISS:          0  dtACCESS:          0  dtHIT:          0  dtMISS:          0
cpu0_L2C RFO          ACCESS:     168084  HIT:      41330  MISS:     126754  iACCESS:          0  iHIT:          0  iMISS:          0  dACCESS:     168084  dHIT:      41330  dMISS:     126754  itACCESS:          0  itHIT:          0  itMISS:          0  dtACCESS:          0  dtHIT:          0  dtMISS:          0
cpu0_L2C PREFETCH     ACCESS:    4630907  HIT:    1082697  MISS:    3548210  iACCESS:    2376186  iHIT:     632930  iMISS:    1743256  dACCESS:    2254721  dHIT:     449767  dMISS:    1804954  itACCESS:          0  itHIT:          0  itMISS:          0  dtACCESS:          0  dtHIT:          0  dtMISS:          0
cpu0_L2C WRITE        ACCESS:     244912  HIT:     110972  MISS:     133940  iACCESS:          0  iHIT:          0  iMISS:          0  dACCESS:     244912  dHIT:     110972  dMISS:     133940  itACCESS:          0  itHIT:          0  itMISS:          0  dtACCESS:          0  dtHIT:          0  dtMISS:          0
cpu0_L2C TRANSLATION  ACCESS:     244754  HIT:     134153  MISS:     110601  iACCESS:          0  iHIT:          0  iMISS:          0  dACCESS:          0  dHIT:          0  dMISS:          0  itACCESS:      31513  itHIT:      17473  itMISS:      14040  dtACCESS:     213241  dtHIT:     116680  dtMISS:      96561
cpu0_L2C PREFETCH  REQUESTED:    1397338  ISSUED:    1397336  CROSSED:          0  USEFUL:     383217  USELESS:     392041
cpu0_L2C AVERAGE iMISS LATENCY: 20.6662 cycles
cpu0_L2C AVERAGE dMISS LATENCY: 36.1764 cycles
cpu0_L2C AVERAGE itMISS LATENCY: 0.343777 cycles
cpu0_L2C AVERAGE dtMISS LATENCY: 1.98972 cycles
cpu0_L2C PAGE CROSSINGS (TLB HIT):         0 
cpu0_L2C PAGE CROSSINGS (TLB MISS):         0 
cpu0_L2C AVERAGE MISS LATENCY: 59.176 cycles
LLC TOTAL       ACCESS:    5846635  HIT:    4282973  MISS:    1563662  iACCESS:    2227116  iHIT:    1670608  iMISS:     556508  dACCESS:    3508918  dHIT:    2566630  dMISS:     942288  itACCESS:      14040  itHIT:       3896  itMISS:      10144  dtACCESS:      96561  dtHIT:      41839  dtMISS:      54722
LLC LOAD         ACCESS:    2102641  HIT:    1753865  MISS:     348776  iACCESS:     555645  iHIT:     441793  iMISS:     113852  dACCESS:    1546996  dHIT:    1312072  dMISS:     234924  itACCESS:          0  itHIT:          0  itMISS:          0  dtACCESS:          0  dtHIT:          0  dtMISS:          0
LLC RFO          ACCESS:     126752  HIT:      75940  MISS:      50812  iACCESS:          0  iHIT:          0  iMISS:          0  dACCESS:     126752  dHIT:      75940  dMISS:      50812  itACCESS:          0  itHIT:          0  itMISS:          0  dtACCESS:          0  dtHIT:          0  dtMISS:          0
LLC PREFETCH     ACCESS:    3375889  HIT:    2287610  MISS:    1088279  iACCESS:    1671471  iHIT:    1228815  iMISS:     442656  dACCESS:    1704418  dHIT:    1058795  dMISS:     645623  itACCESS:          0  itHIT:          0  itMISS:          0  dtACCESS:          0  dtHIT:          0  dtMISS:          0
LLC WRITE        ACCESS:     130752  HIT:     119823  MISS:      10929  iACCESS:          0  iHIT:          0  iMISS:          0  dACCESS:     130752  dHIT:     119823  dMISS:      10929  itACCESS:          0  itHIT:          0  itMISS:          0  dtACCESS:          0  dtHIT:          0  dtMISS:          0
LLC TRANSLATION  ACCESS:     110601  HIT:      45735  MISS:      64866  iACCESS:          0  iHIT:          0  iMISS:          0  dACCESS:          0  dHIT:          0  dMISS:          0  itACCESS:      14040  itHIT:       3896  itMISS:      10144  dtACCESS:      96561  dtHIT:      41839  dtMISS:      54722
LLC PREFETCH  REQUESTED:          0  ISSUED:          0  CROSSED:          0  USEFUL:          0  USELESS:          0
LLC AVERAGE iMISS LATENCY: 52.0813 cycles
LLC AVERAGE dMISS LATENCY: 98.5031 cycles
LLC AVERAGE itMISS LATENCY: 1.14879 cycles
LLC AVERAGE dtMISS LATENCY: 6.46408 cycles
LLC PAGE CROSSINGS (TLB HIT):         0 
LLC PAGE CROSSINGS (TLB MISS):         0 
LLC AVERAGE MISS LATENCY: 158.198 cycles

PageTableWalker TOTAL       ACCESS:      83724  
PageTableWalker AVERAGE LATENCY: 4.61113 cycles
PageTableWalker TOTAL LATENCY: 386062 cycles

DRAM Statistics
Channel 0
 RQ ROW_BUFFER_HIT:     471820
  ROW_BUFFER_MISS:    1066754
 AVG DBUS CONGESTED CYCLE:    3.64168
 WQ ROW_BUFFER_HIT:      28897
  ROW_BUFFER_MISS:      22666  FULL:          0

