last_page:0x200000000000000
VMEM_RES_CAP:0x100000
PAGE_SIZE:4096
LOG2_PAGE_SIZE:12
LOG2_PAGE_TABLE_SIZE:9
page_table_levels:5
WARNING: physical memory size is smaller than virtual memory size
FDiP enabled with aggresivity 16

*** ChampSim Multicore Out-of-Order Simulator ***

Warmup Instructions: 50000000
Simulation Instructions: 100000000
Number of CPUs: 1
Small page size: 4096
Large page size: 2097152

CPU 0 Bimodal branch predictor
Basic BTB sets: 1024 ways: 8 indirect buffer size: 4096 RAS size: 64
Instruction page size distrubution: 0
Loading instruction page size distribution from /home/bsc/bsc018186/scratch/itp_asplos25_AE/dump/srv697_ap.pdst
Data page size distrubution: 0
Loading data page size distribution from /home/bsc/bsc018186/scratch/itp_asplos25_AE/dump/srv697_ap.pdst
cpu0_L2C IP-based stride prefetcher
cpu0_L1D next line prefetcher
cpu0_STLB using iTP with max lru@8
cpu0_STLB using iTP with instr@0 and data@2
Init sat counter with 3 bits (max:50).
cpu0_L1I next line prefetcher
Off-chip DRAM Size: 4 GiB Channels: 1 Width: 64-bit Data Rate: 3200 MT/s
Heartbeat CPU 0 instructions: 10000002 cycles: 2500159 heartbeat IPC: 3.99975 cumulative IPC: 3.99975 (Simulation time: 0 hr 0 min 37 sec) 
Heartbeat CPU 0 instructions: 20000000 cycles: 5000227 heartbeat IPC: 3.9999 cumulative IPC: 3.99982 (Simulation time: 0 hr 1 min 16 sec) 
Heartbeat CPU 0 instructions: 30000001 cycles: 7500318 heartbeat IPC: 3.99986 cumulative IPC: 3.99984 (Simulation time: 0 hr 1 min 56 sec) 
Heartbeat CPU 0 instructions: 40000003 cycles: 10000352 heartbeat IPC: 3.99995 cumulative IPC: 3.99986 (Simulation time: 0 hr 2 min 37 sec) 
Heartbeat CPU 0 instructions: 50000001 cycles: 12500396 heartbeat IPC: 3.99993 cumulative IPC: 3.99988 (Simulation time: 0 hr 3 min 18 sec) 
Warmup finished CPU 0 instructions: 50000001 cycles: 12500397 cumulative IPC: 3.99988 (Simulation time: 0 hr 3 min 18 sec) 

Warmup complete CPU 0 instructions: 50000001 cycles: 12500397 (Simulation time: 0 hr 3 min 18 sec) 

Heartbeat CPU 0 instructions: 60000004 cycles: 26671746 heartbeat IPC: 0.70565 cumulative IPC: 0.70565 (Simulation time: 0 hr 4 min 22 sec) 
Heartbeat CPU 0 instructions: 70000000 cycles: 40157839 heartbeat IPC: 0.741505 cumulative IPC: 0.723133 (Simulation time: 0 hr 5 min 26 sec) 
Heartbeat CPU 0 instructions: 80000000 cycles: 54570381 heartbeat IPC: 0.693841 cumulative IPC: 0.713098 (Simulation time: 0 hr 6 min 32 sec) 
Heartbeat CPU 0 instructions: 90000002 cycles: 68224792 heartbeat IPC: 0.732365 cumulative IPC: 0.717819 (Simulation time: 0 hr 7 min 36 sec) 
Heartbeat CPU 0 instructions: 100000000 cycles: 82306645 heartbeat IPC: 0.710134 cumulative IPC: 0.716269 (Simulation time: 0 hr 8 min 42 sec) 
*** Reached end of trace: /gpfs/projects/bsc18/MN4/bsc18/romol/ChampSim/traces/qualcomm_srv/srv697_ap.champsimtrace.xz
Heartbeat CPU 0 instructions: 110000002 cycles: 95960146 heartbeat IPC: 0.732414 cumulative IPC: 0.71891 (Simulation time: 0 hr 9 min 47 sec) 
Heartbeat CPU 0 instructions: 120000000 cycles: 109687023 heartbeat IPC: 0.728498 cumulative IPC: 0.720264 (Simulation time: 0 hr 10 min 52 sec) 
Heartbeat CPU 0 instructions: 130000000 cycles: 124020578 heartbeat IPC: 0.697664 cumulative IPC: 0.717359 (Simulation time: 0 hr 11 min 57 sec) 
Heartbeat CPU 0 instructions: 140000003 cycles: 137453494 heartbeat IPC: 0.744441 cumulative IPC: 0.720271 (Simulation time: 0 hr 13 min 2 sec) 
Heartbeat CPU 0 instructions: 150000000 cycles: 151582935 heartbeat IPC: 0.707742 cumulative IPC: 0.718998 (Simulation time: 0 hr 14 min 7 sec) 
Simulation finished CPU 0 instructions: 100000002 cycles: 139082540 cumulative IPC: 0.718998 (Simulation time: 0 hr 14 min 7 sec) 

Simulation complete CPU 0 instructions: 100000002 cycles: 139082540 (Simulation time: 0 hr 14 min 7 sec) 


ChampSim completed all CPUs

Saving instructions large page distribution to /home/bsc/bsc018186/scratch/itp_asplos25_AE/dump/srv697_ap.pdst...
Saving data large page distribution to /home/bsc/bsc018186/scratch/itp_asplos25_AE/dump/srv697_ap.pdst...
=== Simulation ===
CPU 0 runs /gpfs/projects/bsc18/MN4/bsc18/romol/ChampSim/traces/qualcomm_srv/srv697_ap.champsimtrace.xz

Region of Interest Statistics

CPU 0 cumulative IPC: 0.718998 instructions: 100000002 cycles: 139082540
CPU 0 Branch Prediction Accuracy: 83.463% MPKI: 29.7079 Average ROB Occupancy at Mispredict: 12.41
Branch type MPKI
BRANCH_DIRECT_JUMP: 0.95082
BRANCH_INDIRECT: 15.4078
BRANCH_CONDITIONAL: 9.71741
BRANCH_DIRECT_CALL: 1.81124
BRANCH_INDIRECT_CALL: 0.50032
BRANCH_RETURN: 1.3204

Instructions large pages: 0
Instructions small pages: 9679
Large page distribution for instructions: 0%

Data large pages: 0
Data small pages: 8829
Large page distribution for data: 0%

cpu0_L1I TOTAL       ACCESS:   35022060  HIT:   26531914  MISS:    8490146  iACCESS:   35022060  iHIT:   26531914  iMISS:    8490146  dACCESS:          0  dHIT:          0  dMISS:          0  itACCESS:          0  itHIT:          0  itMISS:          0  dtACCESS:          0  dtHIT:          0  dtMISS:          0
cpu0_L1I LOAD         ACCESS:   10197119  HIT:    7824134  MISS:    2372985  iACCESS:   10197119  iHIT:    7824134  iMISS:    2372985  dACCESS:          0  dHIT:          0  dMISS:          0  itACCESS:          0  itHIT:          0  itMISS:          0  dtACCESS:          0  dtHIT:          0  dtMISS:          0
cpu0_L1I RFO          ACCESS:          0  HIT:          0  MISS:          0  iACCESS:          0  iHIT:          0  iMISS:          0  dACCESS:          0  dHIT:          0  dMISS:          0  itACCESS:          0  itHIT:          0  itMISS:          0  dtACCESS:          0  dtHIT:          0  dtMISS:          0
cpu0_L1I PREFETCH     ACCESS:   24824941  HIT:   18707780  MISS:    6117161  iACCESS:   24824941  iHIT:   18707780  iMISS:    6117161  dACCESS:          0  dHIT:          0  dMISS:          0  itACCESS:          0  itHIT:          0  itMISS:          0  dtACCESS:          0  dtHIT:          0  dtMISS:          0
cpu0_L1I WRITE        ACCESS:          0  HIT:          0  MISS:          0  iACCESS:          0  iHIT:          0  iMISS:          0  dACCESS:          0  dHIT:          0  dMISS:          0  itACCESS:          0  itHIT:          0  itMISS:          0  dtACCESS:          0  dtHIT:          0  dtMISS:          0
cpu0_L1I TRANSLATION  ACCESS:          0  HIT:          0  MISS:          0  iACCESS:          0  iHIT:          0  iMISS:          0  dACCESS:          0  dHIT:          0  dMISS:          0  itACCESS:          0  itHIT:          0  itMISS:          0  dtACCESS:          0  dtHIT:          0  dtMISS:          0
cpu0_L1I PREFETCH  REQUESTED:   27093673  ISSUED:   27091353  CROSSED:          0  USEFUL:    1934432  USELESS:     638724
cpu0_L1I AVERAGE iMISS LATENCY: 13.3854 cycles
cpu0_L1I AVERAGE dMISS LATENCY: 0 cycles
cpu0_L1I AVERAGE itMISS LATENCY: 0 cycles
cpu0_L1I AVERAGE dtMISS LATENCY: 0 cycles
cpu0_L1I PAGE CROSSINGS (TLB HIT):         0 
cpu0_L1I PAGE CROSSINGS (TLB MISS):         0 
cpu0_L1I AVERAGE MISS LATENCY: 13.3854 cycles
cpu0_ITLB TOTAL       ACCESS:   29005506  HIT:   27019318  MISS:    1986188  iACCESS:   29005506  iHIT:   27019318  iMISS:    1986188  dACCESS:          0  dHIT:          0  dMISS:          0  itACCESS:          0  itHIT:          0  itMISS:          0  dtACCESS:          0  dtHIT:          0  dtMISS:          0
cpu0_ITLB LOAD         ACCESS:   29005506  HIT:   27019318  MISS:    1986188  iACCESS:   29005506  iHIT:   27019318  iMISS:    1986188  dACCESS:          0  dHIT:          0  dMISS:          0  itACCESS:          0  itHIT:          0  itMISS:          0  dtACCESS:          0  dtHIT:          0  dtMISS:          0
cpu0_ITLB RFO          ACCESS:          0  HIT:          0  MISS:          0  iACCESS:          0  iHIT:          0  iMISS:          0  dACCESS:          0  dHIT:          0  dMISS:          0  itACCESS:          0  itHIT:          0  itMISS:          0  dtACCESS:          0  dtHIT:          0  dtMISS:          0
cpu0_ITLB PREFETCH     ACCESS:          0  HIT:          0  MISS:          0  iACCESS:          0  iHIT:          0  iMISS:          0  dACCESS:          0  dHIT:          0  dMISS:          0  itACCESS:          0  itHIT:          0  itMISS:          0  dtACCESS:          0  dtHIT:          0  dtMISS:          0
cpu0_ITLB WRITE        ACCESS:          0  HIT:          0  MISS:          0  iACCESS:          0  iHIT:          0  iMISS:          0  dACCESS:          0  dHIT:          0  dMISS:          0  itACCESS:          0  itHIT:          0  itMISS:          0  dtACCESS:          0  dtHIT:          0  dtMISS:          0
cpu0_ITLB TRANSLATION  ACCESS:          0  HIT:          0  MISS:          0  iACCESS:          0  iHIT:          0  iMISS:          0  dACCESS:          0  dHIT:          0  dMISS:          0  itACCESS:          0  itHIT:          0  itMISS:          0  dtACCESS:          0  dtHIT:          0  dtMISS:          0
cpu0_ITLB PREFETCH  REQUESTED:          0  ISSUED:          0  CROSSED:          0  USEFUL:     326322  USELESS:      62601
cpu0_ITLB AVERAGE iMISS LATENCY: 1.84587 cycles
cpu0_ITLB AVERAGE dMISS LATENCY: 0 cycles
cpu0_ITLB AVERAGE itMISS LATENCY: 0 cycles
cpu0_ITLB AVERAGE dtMISS LATENCY: 0 cycles
cpu0_ITLB PAGE CROSSINGS (TLB HIT):         0 
cpu0_ITLB PAGE CROSSINGS (TLB MISS):         0 
cpu0_ITLB AVERAGE MISS LATENCY: 1.84587 cycles
cpu0_DTLB TOTAL       ACCESS:   27728766  HIT:   25693305  MISS:    2035461  iACCESS:          0  iHIT:          0  iMISS:          0  dACCESS:   27728766  dHIT:   25693305  dMISS:    2035461  itACCESS:          0  itHIT:          0  itMISS:          0  dtACCESS:          0  dtHIT:          0  dtMISS:          0
cpu0_DTLB LOAD         ACCESS:   27728766  HIT:   25693305  MISS:    2035461  iACCESS:          0  iHIT:          0  iMISS:          0  dACCESS:   27728766  dHIT:   25693305  dMISS:    2035461  itACCESS:          0  itHIT:          0  itMISS:          0  dtACCESS:          0  dtHIT:          0  dtMISS:          0
cpu0_DTLB RFO          ACCESS:          0  HIT:          0  MISS:          0  iACCESS:          0  iHIT:          0  iMISS:          0  dACCESS:          0  dHIT:          0  dMISS:          0  itACCESS:          0  itHIT:          0  itMISS:          0  dtACCESS:          0  dtHIT:          0  dtMISS:          0
cpu0_DTLB PREFETCH     ACCESS:          0  HIT:          0  MISS:          0  iACCESS:          0  iHIT:          0  iMISS:          0  dACCESS:          0  dHIT:          0  dMISS:          0  itACCESS:          0  itHIT:          0  itMISS:          0  dtACCESS:          0  dtHIT:          0  dtMISS:          0
cpu0_DTLB WRITE        ACCESS:          0  HIT:          0  MISS:          0  iACCESS:          0  iHIT:          0  iMISS:          0  dACCESS:          0  dHIT:          0  dMISS:          0  itACCESS:          0  itHIT:          0  itMISS:          0  dtACCESS:          0  dtHIT:          0  dtMISS:          0
cpu0_DTLB TRANSLATION  ACCESS:          0  HIT:          0  MISS:          0  iACCESS:          0  iHIT:          0  iMISS:          0  dACCESS:          0  dHIT:          0  dMISS:          0  itACCESS:          0  itHIT:          0  itMISS:          0  dtACCESS:          0  dtHIT:          0  dtMISS:          0
cpu0_DTLB PREFETCH  REQUESTED:          0  ISSUED:          0  CROSSED:          0  USEFUL:          0  USELESS:          0
cpu0_DTLB AVERAGE iMISS LATENCY: 0 cycles
cpu0_DTLB AVERAGE dMISS LATENCY: 10.7046 cycles
cpu0_DTLB AVERAGE itMISS LATENCY: 0 cycles
cpu0_DTLB AVERAGE dtMISS LATENCY: 0 cycles
cpu0_DTLB PAGE CROSSINGS (TLB HIT):         0 
cpu0_DTLB PAGE CROSSINGS (TLB MISS):         0 
cpu0_DTLB AVERAGE MISS LATENCY: 10.7046 cycles
cpu0_STLB TOTAL       ACCESS:    1631370  HIT:    1498663  MISS:     132707  iACCESS:     388965  iHIT:     382220  iMISS:       6745  dACCESS:    1242405  dHIT:    1116443  dMISS:     125962  itACCESS:          0  itHIT:          0  itMISS:          0  dtACCESS:          0  dtHIT:          0  dtMISS:          0
cpu0_STLB LOAD         ACCESS:    1631370  HIT:    1498663  MISS:     132707  iACCESS:     388965  iHIT:     382220  iMISS:       6745  dACCESS:    1242405  dHIT:    1116443  dMISS:     125962  itACCESS:          0  itHIT:          0  itMISS:          0  dtACCESS:          0  dtHIT:          0  dtMISS:          0
cpu0_STLB RFO          ACCESS:          0  HIT:          0  MISS:          0  iACCESS:          0  iHIT:          0  iMISS:          0  dACCESS:          0  dHIT:          0  dMISS:          0  itACCESS:          0  itHIT:          0  itMISS:          0  dtACCESS:          0  dtHIT:          0  dtMISS:          0
cpu0_STLB PREFETCH     ACCESS:          0  HIT:          0  MISS:          0  iACCESS:          0  iHIT:          0  iMISS:          0  dACCESS:          0  dHIT:          0  dMISS:          0  itACCESS:          0  itHIT:          0  itMISS:          0  dtACCESS:          0  dtHIT:          0  dtMISS:          0
cpu0_STLB WRITE        ACCESS:          0  HIT:          0  MISS:          0  iACCESS:          0  iHIT:          0  iMISS:          0  dACCESS:          0  dHIT:          0  dMISS:          0  itACCESS:          0  itHIT:          0  itMISS:          0  dtACCESS:          0  dtHIT:          0  dtMISS:          0
cpu0_STLB TRANSLATION  ACCESS:          0  HIT:          0  MISS:          0  iACCESS:          0  iHIT:          0  iMISS:          0  dACCESS:          0  dHIT:          0  dMISS:          0  itACCESS:          0  itHIT:          0  itMISS:          0  dtACCESS:          0  dtHIT:          0  dtMISS:          0
cpu0_STLB PREFETCH  REQUESTED:          0  ISSUED:          0  CROSSED:          0  USEFUL:          0  USELESS:          0
cpu0_STLB AVERAGE iMISS LATENCY: 4.9065 cycles
cpu0_STLB AVERAGE dMISS LATENCY: 89.5025 cycles
cpu0_STLB AVERAGE itMISS LATENCY: 0 cycles
cpu0_STLB AVERAGE dtMISS LATENCY: 0 cycles
cpu0_STLB PAGE CROSSINGS (TLB HIT):         0 
cpu0_STLB PAGE CROSSINGS (TLB MISS):         0 
cpu0_STLB AVERAGE MISS LATENCY: 94.409 cycles
cpu0_L1D TOTAL       ACCESS:   41438418  HIT:   37958543  MISS:    3479875  iACCESS:          0  iHIT:          0  iMISS:          0  dACCESS:   41239891  dHIT:   37946388  dMISS:    3293503  itACCESS:       8060  itHIT:        678  itMISS:       7382  dtACCESS:     190467  dtHIT:      11477  dtMISS:     178990
cpu0_L1D LOAD         ACCESS:   18930835  HIT:   17423406  MISS:    1507429  iACCESS:          0  iHIT:          0  iMISS:          0  dACCESS:   18930835  dHIT:   17423406  dMISS:    1507429  itACCESS:          0  itHIT:          0  itMISS:          0  dtACCESS:          0  dtHIT:          0  dtMISS:          0
cpu0_L1D RFO          ACCESS:          0  HIT:          0  MISS:          0  iACCESS:          0  iHIT:          0  iMISS:          0  dACCESS:          0  dHIT:          0  dMISS:          0  itACCESS:          0  itHIT:          0  itMISS:          0  dtACCESS:          0  dtHIT:          0  dtMISS:          0
cpu0_L1D PREFETCH     ACCESS:   12165697  HIT:   10804787  MISS:    1360910  iACCESS:          0  iHIT:          0  iMISS:          0  dACCESS:   12165697  dHIT:   10804787  dMISS:    1360910  itACCESS:          0  itHIT:          0  itMISS:          0  dtACCESS:          0  dtHIT:          0  dtMISS:          0
cpu0_L1D WRITE        ACCESS:   10143359  HIT:    9718195  MISS:     425164  iACCESS:          0  iHIT:          0  iMISS:          0  dACCESS:   10143359  dHIT:    9718195  dMISS:     425164  itACCESS:          0  itHIT:          0  itMISS:          0  dtACCESS:          0  dtHIT:          0  dtMISS:          0
cpu0_L1D TRANSLATION  ACCESS:     198527  HIT:      12155  MISS:     186372  iACCESS:          0  iHIT:          0  iMISS:          0  dACCESS:          0  dHIT:          0  dMISS:          0  itACCESS:       8060  itHIT:        678  itMISS:       7382  dtACCESS:     190467  dtHIT:      11477  dtMISS:     178990
cpu0_L1D PREFETCH  REQUESTED:   18930835  ISSUED:   16958697  CROSSED:          0  USEFUL:     307683  USELESS:     699463
cpu0_L1D AVERAGE iMISS LATENCY: 0 cycles
cpu0_L1D AVERAGE dMISS LATENCY: 32.5996 cycles
cpu0_L1D AVERAGE itMISS LATENCY: 0.166121 cycles
cpu0_L1D AVERAGE dtMISS LATENCY: 2.70695 cycles
cpu0_L1D PAGE CROSSINGS (TLB HIT):         0 
cpu0_L1D PAGE CROSSINGS (TLB MISS):         0 
cpu0_L1D AVERAGE MISS LATENCY: 35.4727 cycles
cpu0_L2C TOTAL       ACCESS:    6992540  HIT:    1674895  MISS:    5317645  iACCESS:    3330569  iHIT:     868870  iMISS:    2461699  dACCESS:    3486888  dHIT:     711062  dMISS:    2775826  itACCESS:       7372  itHIT:       3606  itMISS:       3766  dtACCESS:     167711  dtHIT:      91357  dtMISS:      76354
cpu0_L2C LOAD         ACCESS:    1728541  HIT:     312742  MISS:    1415799  iACCESS:     796657  iHIT:     157612  iMISS:     639045  dACCESS:     931884  dHIT:     155130  dMISS:     776754  itACCESS:          0  itHIT:          0  itMISS:          0  dtACCESS:          0  dtHIT:          0  dtMISS:          0
cpu0_L2C RFO          ACCESS:     155761  HIT:      52824  MISS:     102937  iACCESS:          0  iHIT:          0  iMISS:          0  dACCESS:     155761  dHIT:      52824  dMISS:     102937  itACCESS:          0  itHIT:          0  itMISS:          0  dtACCESS:          0  dtHIT:          0  dtMISS:          0
cpu0_L2C PREFETCH     ACCESS:    4649527  HIT:    1072080  MISS:    3577447  iACCESS:    2533912  iHIT:     711258  iMISS:    1822654  dACCESS:    2115615  dHIT:     360822  dMISS:    1754793  itACCESS:          0  itHIT:          0  itMISS:          0  dtACCESS:          0  dtHIT:          0  dtMISS:          0
cpu0_L2C WRITE        ACCESS:     283628  HIT:     142286  MISS:     141342  iACCESS:          0  iHIT:          0  iMISS:          0  dACCESS:     283628  dHIT:     142286  dMISS:     141342  itACCESS:          0  itHIT:          0  itMISS:          0  dtACCESS:          0  dtHIT:          0  dtMISS:          0
cpu0_L2C TRANSLATION  ACCESS:     175083  HIT:      94963  MISS:      80120  iACCESS:          0  iHIT:          0  iMISS:          0  dACCESS:          0  dHIT:          0  dMISS:          0  itACCESS:       7372  itHIT:       3606  itMISS:       3766  dtACCESS:     167711  dtHIT:      91357  dtMISS:      76354
cpu0_L2C PREFETCH  REQUESTED:    1390557  ISSUED:    1390557  CROSSED:          0  USEFUL:     402606  USELESS:     380063
cpu0_L2C AVERAGE iMISS LATENCY: 15.5139 cycles
cpu0_L2C AVERAGE dMISS LATENCY: 24.8535 cycles
cpu0_L2C AVERAGE itMISS LATENCY: 0.0954997 cycles
cpu0_L2C AVERAGE dtMISS LATENCY: 1.47141 cycles
cpu0_L2C PAGE CROSSINGS (TLB HIT):         0 
cpu0_L2C PAGE CROSSINGS (TLB MISS):         0 
cpu0_L2C AVERAGE MISS LATENCY: 41.9343 cycles
LLC TOTAL       ACCESS:    5196351  HIT:    4392628  MISS:     803723  iACCESS:    2404568  iHIT:    2157084  iMISS:     247484  dACCESS:    2711663  dHIT:    2194022  dMISS:     517641  itACCESS:       3766  itHIT:       1322  itMISS:       2444  dtACCESS:      76354  dtHIT:      40200  dtMISS:      36154
LLC LOAD         ACCESS:    1413611  HIT:    1238554  MISS:     175057  iACCESS:     637129  iHIT:     585296  iMISS:      51833  dACCESS:     776482  dHIT:     653258  dMISS:     123224  itACCESS:          0  itHIT:          0  itMISS:          0  dtACCESS:          0  dtHIT:          0  dtMISS:          0
LLC RFO          ACCESS:     102921  HIT:      68550  MISS:      34371  iACCESS:          0  iHIT:          0  iMISS:          0  dACCESS:     102921  dHIT:      68550  dMISS:      34371  itACCESS:          0  itHIT:          0  itMISS:          0  dtACCESS:          0  dtHIT:          0  dtMISS:          0
LLC PREFETCH     ACCESS:    3469401  HIT:    2922753  MISS:     546648  iACCESS:    1767439  iHIT:    1571788  iMISS:     195651  dACCESS:    1701962  dHIT:    1350965  dMISS:     350997  itACCESS:          0  itHIT:          0  itMISS:          0  dtACCESS:          0  dtHIT:          0  dtMISS:          0
LLC WRITE        ACCESS:     130298  HIT:     121249  MISS:       9049  iACCESS:          0  iHIT:          0  iMISS:          0  dACCESS:     130298  dHIT:     121249  dMISS:       9049  itACCESS:          0  itHIT:          0  itMISS:          0  dtACCESS:          0  dtHIT:          0  dtMISS:          0
LLC TRANSLATION  ACCESS:      80120  HIT:      41522  MISS:      38598  iACCESS:          0  iHIT:          0  iMISS:          0  dACCESS:          0  dHIT:          0  dMISS:          0  itACCESS:       3766  itHIT:       1322  itMISS:       2444  dtACCESS:      76354  dtHIT:      40200  dtMISS:      36154
LLC PREFETCH  REQUESTED:          0  ISSUED:          0  CROSSED:          0  USEFUL:          0  USELESS:          0
LLC AVERAGE iMISS LATENCY: 44.8773 cycles
LLC AVERAGE dMISS LATENCY: 102.363 cycles
LLC AVERAGE itMISS LATENCY: 0.540024 cycles
LLC AVERAGE dtMISS LATENCY: 7.88544 cycles
LLC PAGE CROSSINGS (TLB HIT):         0 
LLC PAGE CROSSINGS (TLB MISS):         0 
LLC AVERAGE MISS LATENCY: 155.666 cycles

PageTableWalker TOTAL       ACCESS:      66786  
PageTableWalker AVERAGE LATENCY: 4.93261 cycles
PageTableWalker TOTAL LATENCY: 329429 cycles

DRAM Statistics
Channel 0
 RQ ROW_BUFFER_HIT:     220539
  ROW_BUFFER_MISS:     574110
 AVG DBUS CONGESTED CYCLE:    3.62618
 WQ ROW_BUFFER_HIT:      15038
  ROW_BUFFER_MISS:      20836  FULL:          0

