last_page:0x200000000000000
VMEM_RES_CAP:0x100000
PAGE_SIZE:4096
LOG2_PAGE_SIZE:12
LOG2_PAGE_TABLE_SIZE:9
page_table_levels:5
WARNING: physical memory size is smaller than virtual memory size
FDiP enabled with aggresivity 16

*** ChampSim Multicore Out-of-Order Simulator ***

Warmup Instructions: 50000000
Simulation Instructions: 100000000
Number of CPUs: 1
Small page size: 4096
Large page size: 2097152

CPU 0 Bimodal branch predictor
Basic BTB sets: 1024 ways: 8 indirect buffer size: 4096 RAS size: 64
Instruction page size distrubution: 0
Loading instruction page size distribution from /home/bsc/bsc018186/scratch/itp_asplos25_AE/dump/srv697_ap.pdst
Data page size distrubution: 0
Loading data page size distribution from /home/bsc/bsc018186/scratch/itp_asplos25_AE/dump/srv697_ap.pdst
cpu0_L2C IP-based stride prefetcher
cpu0_L1D next line prefetcher
cpu0_STLB using iTP with max lru@8
cpu0_STLB using iTP with instr@0 and data@2
Init sat counter with 3 bits (max:50).
cpu0_L1I next line prefetcher
Off-chip DRAM Size: 4 GiB Channels: 1 Width: 64-bit Data Rate: 3200 MT/s
Heartbeat CPU 0 instructions: 10000002 cycles: 2500138 heartbeat IPC: 3.99979 cumulative IPC: 3.99979 (Simulation time: 0 hr 0 min 36 sec) 
Heartbeat CPU 0 instructions: 20000000 cycles: 5000192 heartbeat IPC: 3.99992 cumulative IPC: 3.99985 (Simulation time: 0 hr 1 min 15 sec) 
Heartbeat CPU 0 instructions: 30000003 cycles: 7500365 heartbeat IPC: 3.99973 cumulative IPC: 3.99981 (Simulation time: 0 hr 1 min 54 sec) 
Heartbeat CPU 0 instructions: 40000003 cycles: 10000405 heartbeat IPC: 3.99994 cumulative IPC: 3.99984 (Simulation time: 0 hr 2 min 34 sec) 
Heartbeat CPU 0 instructions: 50000002 cycles: 12500437 heartbeat IPC: 3.99995 cumulative IPC: 3.99987 (Simulation time: 0 hr 3 min 14 sec) 
Warmup finished CPU 0 instructions: 50000002 cycles: 12500438 cumulative IPC: 3.99987 (Simulation time: 0 hr 3 min 14 sec) 

Warmup complete CPU 0 instructions: 50000002 cycles: 12500438 (Simulation time: 0 hr 3 min 14 sec) 

Heartbeat CPU 0 instructions: 60000002 cycles: 27332526 heartbeat IPC: 0.674214 cumulative IPC: 0.674214 (Simulation time: 0 hr 4 min 18 sec) 
Heartbeat CPU 0 instructions: 70000000 cycles: 41320409 heartbeat IPC: 0.714905 cumulative IPC: 0.693964 (Simulation time: 0 hr 5 min 20 sec) 
Heartbeat CPU 0 instructions: 80000000 cycles: 56405236 heartbeat IPC: 0.662918 cumulative IPC: 0.683297 (Simulation time: 0 hr 6 min 26 sec) 
Heartbeat CPU 0 instructions: 90000002 cycles: 70620652 heartbeat IPC: 0.703462 cumulative IPC: 0.688229 (Simulation time: 0 hr 7 min 30 sec) 
Heartbeat CPU 0 instructions: 100000000 cycles: 85298165 heartbeat IPC: 0.681315 cumulative IPC: 0.686835 (Simulation time: 0 hr 8 min 36 sec) 
*** Reached end of trace: /gpfs/projects/bsc18/MN4/bsc18/romol/ChampSim/traces/qualcomm_srv/srv697_ap.champsimtrace.xz
Heartbeat CPU 0 instructions: 110000002 cycles: 99522841 heartbeat IPC: 0.703004 cumulative IPC: 0.689478 (Simulation time: 0 hr 9 min 40 sec) 
Heartbeat CPU 0 instructions: 120000000 cycles: 113940063 heartbeat IPC: 0.693615 cumulative IPC: 0.690066 (Simulation time: 0 hr 10 min 45 sec) 
Heartbeat CPU 0 instructions: 130000000 cycles: 128975221 heartbeat IPC: 0.665108 cumulative IPC: 0.686844 (Simulation time: 0 hr 11 min 51 sec) 
Heartbeat CPU 0 instructions: 140000003 cycles: 142990645 heartbeat IPC: 0.7135 cumulative IPC: 0.689707 (Simulation time: 0 hr 12 min 55 sec) 
Heartbeat CPU 0 instructions: 150000000 cycles: 157926275 heartbeat IPC: 0.66954 cumulative IPC: 0.687636 (Simulation time: 0 hr 14 min 0 sec) 
Simulation finished CPU 0 instructions: 100000001 cycles: 145425839 cumulative IPC: 0.687636 (Simulation time: 0 hr 14 min 0 sec) 

Simulation complete CPU 0 instructions: 100000001 cycles: 145425839 (Simulation time: 0 hr 14 min 0 sec) 


ChampSim completed all CPUs

Saving instructions large page distribution to /home/bsc/bsc018186/scratch/itp_asplos25_AE/dump/srv697_ap.pdst...
Saving data large page distribution to /home/bsc/bsc018186/scratch/itp_asplos25_AE/dump/srv697_ap.pdst...
=== Simulation ===
CPU 0 runs /gpfs/projects/bsc18/MN4/bsc18/romol/ChampSim/traces/qualcomm_srv/srv697_ap.champsimtrace.xz

Region of Interest Statistics

CPU 0 cumulative IPC: 0.687636 instructions: 100000001 cycles: 145425839
CPU 0 Branch Prediction Accuracy: 83.463% MPKI: 29.7079 Average ROB Occupancy at Mispredict: 12.9596
Branch type MPKI
BRANCH_DIRECT_JUMP: 0.95082
BRANCH_INDIRECT: 15.4078
BRANCH_CONDITIONAL: 9.71741
BRANCH_DIRECT_CALL: 1.81124
BRANCH_INDIRECT_CALL: 0.50032
BRANCH_RETURN: 1.3204

Instructions large pages: 0
Instructions small pages: 9679
Large page distribution for instructions: 0%

Data large pages: 0
Data small pages: 8829
Large page distribution for data: 0%

cpu0_L1I TOTAL       ACCESS:   34583277  HIT:   26664585  MISS:    7918692  iACCESS:   34583277  iHIT:   26664585  iMISS:    7918692  dACCESS:          0  dHIT:          0  dMISS:          0  itACCESS:          0  itHIT:          0  itMISS:          0  dtACCESS:          0  dtHIT:          0  dtMISS:          0
cpu0_L1I LOAD         ACCESS:   10089861  HIT:    7858789  MISS:    2231072  iACCESS:   10089861  iHIT:    7858789  iMISS:    2231072  dACCESS:          0  dHIT:          0  dMISS:          0  itACCESS:          0  itHIT:          0  itMISS:          0  dtACCESS:          0  dtHIT:          0  dtMISS:          0
cpu0_L1I RFO          ACCESS:          0  HIT:          0  MISS:          0  iACCESS:          0  iHIT:          0  iMISS:          0  dACCESS:          0  dHIT:          0  dMISS:          0  itACCESS:          0  itHIT:          0  itMISS:          0  dtACCESS:          0  dtHIT:          0  dtMISS:          0
cpu0_L1I PREFETCH     ACCESS:   24493416  HIT:   18805796  MISS:    5687620  iACCESS:   24493416  iHIT:   18805796  iMISS:    5687620  dACCESS:          0  dHIT:          0  dMISS:          0  itACCESS:          0  itHIT:          0  itMISS:          0  dtACCESS:          0  dtHIT:          0  dtMISS:          0
cpu0_L1I WRITE        ACCESS:          0  HIT:          0  MISS:          0  iACCESS:          0  iHIT:          0  iMISS:          0  dACCESS:          0  dHIT:          0  dMISS:          0  itACCESS:          0  itHIT:          0  itMISS:          0  dtACCESS:          0  dtHIT:          0  dtMISS:          0
cpu0_L1I TRANSLATION  ACCESS:          0  HIT:          0  MISS:          0  iACCESS:          0  iHIT:          0  iMISS:          0  dACCESS:          0  dHIT:          0  dMISS:          0  itACCESS:          0  itHIT:          0  itMISS:          0  dtACCESS:          0  dtHIT:          0  dtMISS:          0
cpu0_L1I PREFETCH  REQUESTED:   26995607  ISSUED:   26995607  CROSSED:          0  USEFUL:    1927548  USELESS:     639019
cpu0_L1I AVERAGE iMISS LATENCY: 12.4774 cycles
cpu0_L1I AVERAGE dMISS LATENCY: 0 cycles
cpu0_L1I AVERAGE itMISS LATENCY: 0 cycles
cpu0_L1I AVERAGE dtMISS LATENCY: 0 cycles
cpu0_L1I PAGE CROSSINGS (TLB HIT):         0 
cpu0_L1I PAGE CROSSINGS (TLB MISS):         0 
cpu0_L1I AVERAGE MISS LATENCY: 12.4774 cycles
cpu0_ITLB TOTAL       ACCESS:   28903457  HIT:   26895614  MISS:    2007843  iACCESS:   28903457  iHIT:   26895614  iMISS:    2007843  dACCESS:          0  dHIT:          0  dMISS:          0  itACCESS:          0  itHIT:          0  itMISS:          0  dtACCESS:          0  dtHIT:          0  dtMISS:          0
cpu0_ITLB LOAD         ACCESS:   28903457  HIT:   26895614  MISS:    2007843  iACCESS:   28903457  iHIT:   26895614  iMISS:    2007843  dACCESS:          0  dHIT:          0  dMISS:          0  itACCESS:          0  itHIT:          0  itMISS:          0  dtACCESS:          0  dtHIT:          0  dtMISS:          0
cpu0_ITLB RFO          ACCESS:          0  HIT:          0  MISS:          0  iACCESS:          0  iHIT:          0  iMISS:          0  dACCESS:          0  dHIT:          0  dMISS:          0  itACCESS:          0  itHIT:          0  itMISS:          0  dtACCESS:          0  dtHIT:          0  dtMISS:          0
cpu0_ITLB PREFETCH     ACCESS:          0  HIT:          0  MISS:          0  iACCESS:          0  iHIT:          0  iMISS:          0  dACCESS:          0  dHIT:          0  dMISS:          0  itACCESS:          0  itHIT:          0  itMISS:          0  dtACCESS:          0  dtHIT:          0  dtMISS:          0
cpu0_ITLB WRITE        ACCESS:          0  HIT:          0  MISS:          0  iACCESS:          0  iHIT:          0  iMISS:          0  dACCESS:          0  dHIT:          0  dMISS:          0  itACCESS:          0  itHIT:          0  itMISS:          0  dtACCESS:          0  dtHIT:          0  dtMISS:          0
cpu0_ITLB TRANSLATION  ACCESS:          0  HIT:          0  MISS:          0  iACCESS:          0  iHIT:          0  iMISS:          0  dACCESS:          0  dHIT:          0  dMISS:          0  itACCESS:          0  itHIT:          0  itMISS:          0  dtACCESS:          0  dtHIT:          0  dtMISS:          0
cpu0_ITLB PREFETCH  REQUESTED:          0  ISSUED:          0  CROSSED:          0  USEFUL:     325613  USELESS:      63337
cpu0_ITLB AVERAGE iMISS LATENCY: 2.02211 cycles
cpu0_ITLB AVERAGE dMISS LATENCY: 0 cycles
cpu0_ITLB AVERAGE itMISS LATENCY: 0 cycles
cpu0_ITLB AVERAGE dtMISS LATENCY: 0 cycles
cpu0_ITLB PAGE CROSSINGS (TLB HIT):         0 
cpu0_ITLB PAGE CROSSINGS (TLB MISS):         0 
cpu0_ITLB AVERAGE MISS LATENCY: 2.02211 cycles
cpu0_DTLB TOTAL       ACCESS:   27698533  HIT:   25643639  MISS:    2054894  iACCESS:          0  iHIT:          0  iMISS:          0  dACCESS:   27698533  dHIT:   25643639  dMISS:    2054894  itACCESS:          0  itHIT:          0  itMISS:          0  dtACCESS:          0  dtHIT:          0  dtMISS:          0
cpu0_DTLB LOAD         ACCESS:   27698533  HIT:   25643639  MISS:    2054894  iACCESS:          0  iHIT:          0  iMISS:          0  dACCESS:   27698533  dHIT:   25643639  dMISS:    2054894  itACCESS:          0  itHIT:          0  itMISS:          0  dtACCESS:          0  dtHIT:          0  dtMISS:          0
cpu0_DTLB RFO          ACCESS:          0  HIT:          0  MISS:          0  iACCESS:          0  iHIT:          0  iMISS:          0  dACCESS:          0  dHIT:          0  dMISS:          0  itACCESS:          0  itHIT:          0  itMISS:          0  dtACCESS:          0  dtHIT:          0  dtMISS:          0
cpu0_DTLB PREFETCH     ACCESS:          0  HIT:          0  MISS:          0  iACCESS:          0  iHIT:          0  iMISS:          0  dACCESS:          0  dHIT:          0  dMISS:          0  itACCESS:          0  itHIT:          0  itMISS:          0  dtACCESS:          0  dtHIT:          0  dtMISS:          0
cpu0_DTLB WRITE        ACCESS:          0  HIT:          0  MISS:          0  iACCESS:          0  iHIT:          0  iMISS:          0  dACCESS:          0  dHIT:          0  dMISS:          0  itACCESS:          0  itHIT:          0  itMISS:          0  dtACCESS:          0  dtHIT:          0  dtMISS:          0
cpu0_DTLB TRANSLATION  ACCESS:          0  HIT:          0  MISS:          0  iACCESS:          0  iHIT:          0  iMISS:          0  dACCESS:          0  dHIT:          0  dMISS:          0  itACCESS:          0  itHIT:          0  itMISS:          0  dtACCESS:          0  dtHIT:          0  dtMISS:          0
cpu0_DTLB PREFETCH  REQUESTED:          0  ISSUED:          0  CROSSED:          0  USEFUL:          0  USELESS:          0
cpu0_DTLB AVERAGE iMISS LATENCY: 0 cycles
cpu0_DTLB AVERAGE dMISS LATENCY: 15.5941 cycles
cpu0_DTLB AVERAGE itMISS LATENCY: 0 cycles
cpu0_DTLB AVERAGE dtMISS LATENCY: 0 cycles
cpu0_DTLB PAGE CROSSINGS (TLB HIT):         0 
cpu0_DTLB PAGE CROSSINGS (TLB MISS):         0 
cpu0_DTLB AVERAGE MISS LATENCY: 15.5941 cycles
cpu0_STLB TOTAL       ACCESS:    1631011  HIT:    1498310  MISS:     132701  iACCESS:     388959  iHIT:     382162  iMISS:       6797  dACCESS:    1242052  dHIT:    1116148  dMISS:     125904  itACCESS:          0  itHIT:          0  itMISS:          0  dtACCESS:          0  dtHIT:          0  dtMISS:          0
cpu0_STLB LOAD         ACCESS:    1631011  HIT:    1498310  MISS:     132701  iACCESS:     388959  iHIT:     382162  iMISS:       6797  dACCESS:    1242052  dHIT:    1116148  dMISS:     125904  itACCESS:          0  itHIT:          0  itMISS:          0  dtACCESS:          0  dtHIT:          0  dtMISS:          0
cpu0_STLB RFO          ACCESS:          0  HIT:          0  MISS:          0  iACCESS:          0  iHIT:          0  iMISS:          0  dACCESS:          0  dHIT:          0  dMISS:          0  itACCESS:          0  itHIT:          0  itMISS:          0  dtACCESS:          0  dtHIT:          0  dtMISS:          0
cpu0_STLB PREFETCH     ACCESS:          0  HIT:          0  MISS:          0  iACCESS:          0  iHIT:          0  iMISS:          0  dACCESS:          0  dHIT:          0  dMISS:          0  itACCESS:          0  itHIT:          0  itMISS:          0  dtACCESS:          0  dtHIT:          0  dtMISS:          0
cpu0_STLB WRITE        ACCESS:          0  HIT:          0  MISS:          0  iACCESS:          0  iHIT:          0  iMISS:          0  dACCESS:          0  dHIT:          0  dMISS:          0  itACCESS:          0  itHIT:          0  itMISS:          0  dtACCESS:          0  dtHIT:          0  dtMISS:          0
cpu0_STLB TRANSLATION  ACCESS:          0  HIT:          0  MISS:          0  iACCESS:          0  iHIT:          0  iMISS:          0  dACCESS:          0  dHIT:          0  dMISS:          0  itACCESS:          0  itHIT:          0  itMISS:          0  dtACCESS:          0  dtHIT:          0  dtMISS:          0
cpu0_STLB PREFETCH  REQUESTED:          0  ISSUED:          0  CROSSED:          0  USEFUL:          0  USELESS:          0
cpu0_STLB AVERAGE iMISS LATENCY: 7.85196 cycles
cpu0_STLB AVERAGE dMISS LATENCY: 166.743 cycles
cpu0_STLB AVERAGE itMISS LATENCY: 0 cycles
cpu0_STLB AVERAGE dtMISS LATENCY: 0 cycles
cpu0_STLB PAGE CROSSINGS (TLB HIT):         0 
cpu0_STLB PAGE CROSSINGS (TLB MISS):         0 
cpu0_STLB AVERAGE MISS LATENCY: 174.595 cycles
cpu0_L1D TOTAL       ACCESS:   41391381  HIT:   37930940  MISS:    3460441  iACCESS:          0  iHIT:          0  iMISS:          0  dACCESS:   41193689  dHIT:   37918775  dMISS:    3274914  itACCESS:       8115  itHIT:        686  itMISS:       7429  dtACCESS:     189577  dtHIT:      11479  dtMISS:     178098
cpu0_L1D LOAD         ACCESS:   18904361  HIT:   17402496  MISS:    1501865  iACCESS:          0  iHIT:          0  iMISS:          0  dACCESS:   18904361  dHIT:   17402496  dMISS:    1501865  itACCESS:          0  itHIT:          0  itMISS:          0  dtACCESS:          0  dtHIT:          0  dtMISS:          0
cpu0_L1D RFO          ACCESS:          0  HIT:          0  MISS:          0  iACCESS:          0  iHIT:          0  iMISS:          0  dACCESS:          0  dHIT:          0  dMISS:          0  itACCESS:          0  itHIT:          0  itMISS:          0  dtACCESS:          0  dtHIT:          0  dtMISS:          0
cpu0_L1D PREFETCH     ACCESS:   12132547  HIT:   10793062  MISS:    1339485  iACCESS:          0  iHIT:          0  iMISS:          0  dACCESS:   12132547  dHIT:   10793062  dMISS:    1339485  itACCESS:          0  itHIT:          0  itMISS:          0  dtACCESS:          0  dtHIT:          0  dtMISS:          0
cpu0_L1D WRITE        ACCESS:   10156781  HIT:    9723217  MISS:     433564  iACCESS:          0  iHIT:          0  iMISS:          0  dACCESS:   10156781  dHIT:    9723217  dMISS:     433564  itACCESS:          0  itHIT:          0  itMISS:          0  dtACCESS:          0  dtHIT:          0  dtMISS:          0
cpu0_L1D TRANSLATION  ACCESS:     197692  HIT:      12165  MISS:     185527  iACCESS:          0  iHIT:          0  iMISS:          0  dACCESS:          0  dHIT:          0  dMISS:          0  itACCESS:       8115  itHIT:        686  itMISS:       7429  dtACCESS:     189577  dtHIT:      11479  dtMISS:     178098
cpu0_L1D PREFETCH  REQUESTED:   18904361  ISSUED:   16930375  CROSSED:          0  USEFUL:     306872  USELESS:     699691
cpu0_L1D AVERAGE iMISS LATENCY: 0 cycles
cpu0_L1D AVERAGE dMISS LATENCY: 31.514 cycles
cpu0_L1D AVERAGE itMISS LATENCY: 0.279926 cycles
cpu0_L1D AVERAGE dtMISS LATENCY: 5.67905 cycles
cpu0_L1D PAGE CROSSINGS (TLB HIT):         0 
cpu0_L1D PAGE CROSSINGS (TLB MISS):         0 
cpu0_L1D AVERAGE MISS LATENCY: 37.4729 cycles
cpu0_L2C TOTAL       ACCESS:    6982175  HIT:    4131272  MISS:    2850903  iACCESS:    3329700  iHIT:    2257768  iMISS:    1071932  dACCESS:    3477346  dHIT:    1844935  dMISS:    1632411  itACCESS:       7429  itHIT:       1247  itMISS:       6182  dtACCESS:     167700  dtHIT:      27322  dtMISS:     140378
cpu0_L2C LOAD         ACCESS:    1737646  HIT:    1062442  MISS:     675204  iACCESS:     804163  iHIT:     573548  iMISS:     230615  dACCESS:     933483  dHIT:     488894  dMISS:     444589  itACCESS:          0  itHIT:          0  itMISS:          0  dtACCESS:          0  dtHIT:          0  dtMISS:          0
cpu0_L2C RFO          ACCESS:     155170  HIT:      73394  MISS:      81776  iACCESS:          0  iHIT:          0  iMISS:          0  dACCESS:     155170  dHIT:      73394  dMISS:      81776  itACCESS:          0  itHIT:          0  itMISS:          0  dtACCESS:          0  dtHIT:          0  dtMISS:          0
cpu0_L2C PREFETCH     ACCESS:    4630000  HIT:    2684324  MISS:    1945676  iACCESS:    2525537  iHIT:    1684220  iMISS:     841317  dACCESS:    2104463  dHIT:    1000104  dMISS:    1104359  itACCESS:          0  itHIT:          0  itMISS:          0  dtACCESS:          0  dtHIT:          0  dtMISS:          0
cpu0_L2C WRITE        ACCESS:     284230  HIT:     282543  MISS:       1687  iACCESS:          0  iHIT:          0  iMISS:          0  dACCESS:     284230  dHIT:     282543  dMISS:       1687  itACCESS:          0  itHIT:          0  itMISS:          0  dtACCESS:          0  dtHIT:          0  dtMISS:          0
cpu0_L2C TRANSLATION  ACCESS:     175129  HIT:      28569  MISS:     146560  iACCESS:          0  iHIT:          0  iMISS:          0  dACCESS:          0  dHIT:          0  dMISS:          0  itACCESS:       7429  itHIT:       1247  itMISS:       6182  dtACCESS:     167700  dtHIT:      27322  dtMISS:     140378
cpu0_L2C PREFETCH  REQUESTED:    1376013  ISSUED:    1376013  CROSSED:          0  USEFUL:     310340  USELESS:     227631
cpu0_L2C AVERAGE iMISS LATENCY: 24.1701 cycles
cpu0_L2C AVERAGE dMISS LATENCY: 44.6492 cycles
cpu0_L2C AVERAGE itMISS LATENCY: 0.314098 cycles
cpu0_L2C AVERAGE dtMISS LATENCY: 6.31 cycles
cpu0_L2C PAGE CROSSINGS (TLB HIT):         0 
cpu0_L2C PAGE CROSSINGS (TLB MISS):         0 
cpu0_L2C AVERAGE MISS LATENCY: 75.4434 cycles
LLC TOTAL       ACCESS:    2882726  HIT:    1860700  MISS:    1022026  iACCESS:    1019734  iHIT:     688160  iMISS:     331574  dACCESS:    1716432  dHIT:    1115214  dMISS:     601218  itACCESS:       6182  itHIT:       1813  itMISS:       4369  dtACCESS:     140378  dtHIT:      55513  dtMISS:      84865
LLC LOAD         ACCESS:     673965  HIT:     452208  MISS:     221757  iACCESS:     229519  iHIT:     158375  iMISS:      71144  dACCESS:     444446  dHIT:     293833  dMISS:     150613  itACCESS:          0  itHIT:          0  itMISS:          0  dtACCESS:          0  dtHIT:          0  dtMISS:          0
LLC RFO          ACCESS:      81771  HIT:      42497  MISS:      39274  iACCESS:          0  iHIT:          0  iMISS:          0  dACCESS:      81771  dHIT:      42497  dMISS:      39274  itACCESS:          0  itHIT:          0  itMISS:          0  dtACCESS:          0  dtHIT:          0  dtMISS:          0
LLC PREFETCH     ACCESS:    1845964  HIT:    1179985  MISS:     665979  iACCESS:     790215  iHIT:     529785  iMISS:     260430  dACCESS:    1055749  dHIT:     650200  dMISS:     405549  itACCESS:          0  itHIT:          0  itMISS:          0  dtACCESS:          0  dtHIT:          0  dtMISS:          0
LLC WRITE        ACCESS:     134466  HIT:     128684  MISS:       5782  iACCESS:          0  iHIT:          0  iMISS:          0  dACCESS:     134466  dHIT:     128684  dMISS:       5782  itACCESS:          0  itHIT:          0  itMISS:          0  dtACCESS:          0  dtHIT:          0  dtMISS:          0
LLC TRANSLATION  ACCESS:     146560  HIT:      57326  MISS:      89234  iACCESS:          0  iHIT:          0  iMISS:          0  dACCESS:          0  dHIT:          0  dMISS:          0  itACCESS:       6182  itHIT:       1813  itMISS:       4369  dtACCESS:     140378  dtHIT:      55513  dtMISS:      84865
LLC PREFETCH  REQUESTED:          0  ISSUED:          0  CROSSED:          0  USEFUL:          0  USELESS:          0
LLC AVERAGE iMISS LATENCY: 48.0475 cycles
LLC AVERAGE dMISS LATENCY: 94.489 cycles
LLC AVERAGE itMISS LATENCY: 0.75736 cycles
LLC AVERAGE dtMISS LATENCY: 14.9145 cycles
LLC PAGE CROSSINGS (TLB HIT):         0 
LLC PAGE CROSSINGS (TLB MISS):         0 
LLC AVERAGE MISS LATENCY: 158.209 cycles

PageTableWalker TOTAL       ACCESS:      66647  
PageTableWalker AVERAGE LATENCY: 5.55575 cycles
PageTableWalker TOTAL LATENCY: 370274 cycles

DRAM Statistics
Channel 0
 RQ ROW_BUFFER_HIT:     270154
  ROW_BUFFER_MISS:     746022
 AVG DBUS CONGESTED CYCLE:      3.621
 WQ ROW_BUFFER_HIT:      21522
  ROW_BUFFER_MISS:      22619  FULL:          0

