last_page:0x200000000000000
VMEM_RES_CAP:0x100000
PAGE_SIZE:4096
LOG2_PAGE_SIZE:12
LOG2_PAGE_TABLE_SIZE:9
page_table_levels:5
WARNING: physical memory size is smaller than virtual memory size
FDiP enabled with aggresivity 16

*** ChampSim Multicore Out-of-Order Simulator ***

Warmup Instructions: 50000000
Simulation Instructions: 100000000
Number of CPUs: 1
Small page size: 4096
Large page size: 2097152

CPU 0 Bimodal branch predictor
Basic BTB sets: 1024 ways: 8 indirect buffer size: 4096 RAS size: 64
Instruction page size distrubution: 0
Loading instruction page size distribution from /home/bsc/bsc018186/scratch/itp_asplos25_AE/dump/srv642_ap.pdst
Data page size distrubution: 0
Loading data page size distribution from /home/bsc/bsc018186/scratch/itp_asplos25_AE/dump/srv642_ap.pdst
cpu0_L2C IP-based stride prefetcher
cpu0_L1D next line prefetcher
cpu0_STLB using iTP with max lru@8
cpu0_STLB using iTP with instr@0 and data@2
Init sat counter with 3 bits (max:50).
cpu0_L1I next line prefetcher
Off-chip DRAM Size: 4 GiB Channels: 1 Width: 64-bit Data Rate: 3200 MT/s
Heartbeat CPU 0 instructions: 10000000 cycles: 2500231 heartbeat IPC: 3.99964 cumulative IPC: 3.99964 (Simulation time: 0 hr 0 min 38 sec) 
Heartbeat CPU 0 instructions: 20000001 cycles: 5000257 heartbeat IPC: 3.99996 cumulative IPC: 3.9998 (Simulation time: 0 hr 1 min 18 sec) 
Heartbeat CPU 0 instructions: 30000001 cycles: 7500257 heartbeat IPC: 4 cumulative IPC: 3.99987 (Simulation time: 0 hr 1 min 59 sec) 
Heartbeat CPU 0 instructions: 40000000 cycles: 10000295 heartbeat IPC: 3.99994 cumulative IPC: 3.99989 (Simulation time: 0 hr 2 min 41 sec) 
Heartbeat CPU 0 instructions: 50000003 cycles: 12500297 heartbeat IPC: 4 cumulative IPC: 3.99991 (Simulation time: 0 hr 3 min 22 sec) 
Warmup finished CPU 0 instructions: 50000003 cycles: 12500298 cumulative IPC: 3.99991 (Simulation time: 0 hr 3 min 22 sec) 

Warmup complete CPU 0 instructions: 50000003 cycles: 12500298 (Simulation time: 0 hr 3 min 22 sec) 

Heartbeat CPU 0 instructions: 60000002 cycles: 26817024 heartbeat IPC: 0.698484 cumulative IPC: 0.698484 (Simulation time: 0 hr 4 min 26 sec) 
Heartbeat CPU 0 instructions: 70000000 cycles: 41203000 heartbeat IPC: 0.695122 cumulative IPC: 0.696799 (Simulation time: 0 hr 5 min 31 sec) 
Heartbeat CPU 0 instructions: 80000004 cycles: 55218227 heartbeat IPC: 0.71351 cumulative IPC: 0.702282 (Simulation time: 0 hr 6 min 35 sec) 
Heartbeat CPU 0 instructions: 90000000 cycles: 69396664 heartbeat IPC: 0.705297 cumulative IPC: 0.703033 (Simulation time: 0 hr 7 min 39 sec) 
Heartbeat CPU 0 instructions: 100000004 cycles: 82746932 heartbeat IPC: 0.749049 cumulative IPC: 0.711778 (Simulation time: 0 hr 8 min 42 sec) 
*** Reached end of trace: /gpfs/projects/bsc18/MN4/bsc18/romol/ChampSim/traces/qualcomm_srv/srv642_ap.champsimtrace.xz
Heartbeat CPU 0 instructions: 110000002 cycles: 97237424 heartbeat IPC: 0.690108 cumulative IPC: 0.708073 (Simulation time: 0 hr 9 min 47 sec) 
Heartbeat CPU 0 instructions: 120000000 cycles: 111727527 heartbeat IPC: 0.690127 cumulative IPC: 0.705452 (Simulation time: 0 hr 10 min 51 sec) 
Heartbeat CPU 0 instructions: 130000000 cycles: 125038816 heartbeat IPC: 0.751243 cumulative IPC: 0.710868 (Simulation time: 0 hr 11 min 55 sec) 
Heartbeat CPU 0 instructions: 140000003 cycles: 138472172 heartbeat IPC: 0.744416 cumulative IPC: 0.714446 (Simulation time: 0 hr 12 min 58 sec) 
Heartbeat CPU 0 instructions: 150000002 cycles: 152181084 heartbeat IPC: 0.729453 cumulative IPC: 0.715919 (Simulation time: 0 hr 14 min 2 sec) 
Simulation finished CPU 0 instructions: 100000004 cycles: 139680788 cumulative IPC: 0.715919 (Simulation time: 0 hr 14 min 2 sec) 

Simulation complete CPU 0 instructions: 100000004 cycles: 139680788 (Simulation time: 0 hr 14 min 2 sec) 


ChampSim completed all CPUs

Saving instructions large page distribution to /home/bsc/bsc018186/scratch/itp_asplos25_AE/dump/srv642_ap.pdst...
Saving data large page distribution to /home/bsc/bsc018186/scratch/itp_asplos25_AE/dump/srv642_ap.pdst...
=== Simulation ===
CPU 0 runs /gpfs/projects/bsc18/MN4/bsc18/romol/ChampSim/traces/qualcomm_srv/srv642_ap.champsimtrace.xz

Region of Interest Statistics

CPU 0 cumulative IPC: 0.715919 instructions: 100000004 cycles: 139680788
CPU 0 Branch Prediction Accuracy: 83.3684% MPKI: 29.717 Average ROB Occupancy at Mispredict: 12.4991
Branch type MPKI
BRANCH_DIRECT_JUMP: 1.01965
BRANCH_INDIRECT: 15.3331
BRANCH_CONDITIONAL: 9.67066
BRANCH_DIRECT_CALL: 1.8437
BRANCH_INDIRECT_CALL: 0.51454
BRANCH_RETURN: 1.33528

Instructions large pages: 0
Instructions small pages: 1029
Large page distribution for instructions: 0%

Data large pages: 0
Data small pages: 10108
Large page distribution for data: 0%

cpu0_L1I TOTAL       ACCESS:   35152451  HIT:   26870554  MISS:    8281897  iACCESS:   35152451  iHIT:   26870554  iMISS:    8281897  dACCESS:          0  dHIT:          0  dMISS:          0  itACCESS:          0  itHIT:          0  itMISS:          0  dtACCESS:          0  dtHIT:          0  dtMISS:          0
cpu0_L1I LOAD         ACCESS:   10321929  HIT:    8007374  MISS:    2314555  iACCESS:   10321929  iHIT:    8007374  iMISS:    2314555  dACCESS:          0  dHIT:          0  dMISS:          0  itACCESS:          0  itHIT:          0  itMISS:          0  dtACCESS:          0  dtHIT:          0  dtMISS:          0
cpu0_L1I RFO          ACCESS:          0  HIT:          0  MISS:          0  iACCESS:          0  iHIT:          0  iMISS:          0  dACCESS:          0  dHIT:          0  dMISS:          0  itACCESS:          0  itHIT:          0  itMISS:          0  dtACCESS:          0  dtHIT:          0  dtMISS:          0
cpu0_L1I PREFETCH     ACCESS:   24830522  HIT:   18863180  MISS:    5967342  iACCESS:   24830522  iHIT:   18863180  iMISS:    5967342  dACCESS:          0  dHIT:          0  dMISS:          0  itACCESS:          0  itHIT:          0  itMISS:          0  dtACCESS:          0  dtHIT:          0  dtMISS:          0
cpu0_L1I WRITE        ACCESS:          0  HIT:          0  MISS:          0  iACCESS:          0  iHIT:          0  iMISS:          0  dACCESS:          0  dHIT:          0  dMISS:          0  itACCESS:          0  itHIT:          0  itMISS:          0  dtACCESS:          0  dtHIT:          0  dtMISS:          0
cpu0_L1I TRANSLATION  ACCESS:          0  HIT:          0  MISS:          0  iACCESS:          0  iHIT:          0  iMISS:          0  dACCESS:          0  dHIT:          0  dMISS:          0  itACCESS:          0  itHIT:          0  itMISS:          0  dtACCESS:          0  dtHIT:          0  dtMISS:          0
cpu0_L1I PREFETCH  REQUESTED:   27205827  ISSUED:   27204675  CROSSED:          0  USEFUL:    1902911  USELESS:     626141
cpu0_L1I AVERAGE iMISS LATENCY: 13.4175 cycles
cpu0_L1I AVERAGE dMISS LATENCY: 0 cycles
cpu0_L1I AVERAGE itMISS LATENCY: 0 cycles
cpu0_L1I AVERAGE dtMISS LATENCY: 0 cycles
cpu0_L1I PAGE CROSSINGS (TLB HIT):         0 
cpu0_L1I PAGE CROSSINGS (TLB MISS):         0 
cpu0_L1I AVERAGE MISS LATENCY: 13.4175 cycles
cpu0_ITLB TOTAL       ACCESS:   29117202  HIT:   27150560  MISS:    1966642  iACCESS:   29117202  iHIT:   27150560  iMISS:    1966642  dACCESS:          0  dHIT:          0  dMISS:          0  itACCESS:          0  itHIT:          0  itMISS:          0  dtACCESS:          0  dtHIT:          0  dtMISS:          0
cpu0_ITLB LOAD         ACCESS:   29117202  HIT:   27150560  MISS:    1966642  iACCESS:   29117202  iHIT:   27150560  iMISS:    1966642  dACCESS:          0  dHIT:          0  dMISS:          0  itACCESS:          0  itHIT:          0  itMISS:          0  dtACCESS:          0  dtHIT:          0  dtMISS:          0
cpu0_ITLB RFO          ACCESS:          0  HIT:          0  MISS:          0  iACCESS:          0  iHIT:          0  iMISS:          0  dACCESS:          0  dHIT:          0  dMISS:          0  itACCESS:          0  itHIT:          0  itMISS:          0  dtACCESS:          0  dtHIT:          0  dtMISS:          0
cpu0_ITLB PREFETCH     ACCESS:          0  HIT:          0  MISS:          0  iACCESS:          0  iHIT:          0  iMISS:          0  dACCESS:          0  dHIT:          0  dMISS:          0  itACCESS:          0  itHIT:          0  itMISS:          0  dtACCESS:          0  dtHIT:          0  dtMISS:          0
cpu0_ITLB WRITE        ACCESS:          0  HIT:          0  MISS:          0  iACCESS:          0  iHIT:          0  iMISS:          0  dACCESS:          0  dHIT:          0  dMISS:          0  itACCESS:          0  itHIT:          0  itMISS:          0  dtACCESS:          0  dtHIT:          0  dtMISS:          0
cpu0_ITLB TRANSLATION  ACCESS:          0  HIT:          0  MISS:          0  iACCESS:          0  iHIT:          0  iMISS:          0  dACCESS:          0  dHIT:          0  dMISS:          0  itACCESS:          0  itHIT:          0  itMISS:          0  dtACCESS:          0  dtHIT:          0  dtMISS:          0
cpu0_ITLB PREFETCH  REQUESTED:          0  ISSUED:          0  CROSSED:          0  USEFUL:     322537  USELESS:      66116
cpu0_ITLB AVERAGE iMISS LATENCY: 1.94523 cycles
cpu0_ITLB AVERAGE dMISS LATENCY: 0 cycles
cpu0_ITLB AVERAGE itMISS LATENCY: 0 cycles
cpu0_ITLB AVERAGE dtMISS LATENCY: 0 cycles
cpu0_ITLB PAGE CROSSINGS (TLB HIT):         0 
cpu0_ITLB PAGE CROSSINGS (TLB MISS):         0 
cpu0_ITLB AVERAGE MISS LATENCY: 1.94523 cycles
cpu0_DTLB TOTAL       ACCESS:   27713271  HIT:   25620599  MISS:    2092672  iACCESS:          0  iHIT:          0  iMISS:          0  dACCESS:   27713271  dHIT:   25620599  dMISS:    2092672  itACCESS:          0  itHIT:          0  itMISS:          0  dtACCESS:          0  dtHIT:          0  dtMISS:          0
cpu0_DTLB LOAD         ACCESS:   27713271  HIT:   25620599  MISS:    2092672  iACCESS:          0  iHIT:          0  iMISS:          0  dACCESS:   27713271  dHIT:   25620599  dMISS:    2092672  itACCESS:          0  itHIT:          0  itMISS:          0  dtACCESS:          0  dtHIT:          0  dtMISS:          0
cpu0_DTLB RFO          ACCESS:          0  HIT:          0  MISS:          0  iACCESS:          0  iHIT:          0  iMISS:          0  dACCESS:          0  dHIT:          0  dMISS:          0  itACCESS:          0  itHIT:          0  itMISS:          0  dtACCESS:          0  dtHIT:          0  dtMISS:          0
cpu0_DTLB PREFETCH     ACCESS:          0  HIT:          0  MISS:          0  iACCESS:          0  iHIT:          0  iMISS:          0  dACCESS:          0  dHIT:          0  dMISS:          0  itACCESS:          0  itHIT:          0  itMISS:          0  dtACCESS:          0  dtHIT:          0  dtMISS:          0
cpu0_DTLB WRITE        ACCESS:          0  HIT:          0  MISS:          0  iACCESS:          0  iHIT:          0  iMISS:          0  dACCESS:          0  dHIT:          0  dMISS:          0  itACCESS:          0  itHIT:          0  itMISS:          0  dtACCESS:          0  dtHIT:          0  dtMISS:          0
cpu0_DTLB TRANSLATION  ACCESS:          0  HIT:          0  MISS:          0  iACCESS:          0  iHIT:          0  iMISS:          0  dACCESS:          0  dHIT:          0  dMISS:          0  itACCESS:          0  itHIT:          0  itMISS:          0  dtACCESS:          0  dtHIT:          0  dtMISS:          0
cpu0_DTLB PREFETCH  REQUESTED:          0  ISSUED:          0  CROSSED:          0  USEFUL:          0  USELESS:          0
cpu0_DTLB AVERAGE iMISS LATENCY: 0 cycles
cpu0_DTLB AVERAGE dMISS LATENCY: 10.9172 cycles
cpu0_DTLB AVERAGE itMISS LATENCY: 0 cycles
cpu0_DTLB AVERAGE dtMISS LATENCY: 0 cycles
cpu0_DTLB PAGE CROSSINGS (TLB HIT):         0 
cpu0_DTLB PAGE CROSSINGS (TLB MISS):         0 
cpu0_DTLB AVERAGE MISS LATENCY: 10.9172 cycles
cpu0_STLB TOTAL       ACCESS:    1627297  HIT:    1479889  MISS:     147408  iACCESS:     388685  iHIT:     379876  iMISS:       8809  dACCESS:    1238612  dHIT:    1100013  dMISS:     138599  itACCESS:          0  itHIT:          0  itMISS:          0  dtACCESS:          0  dtHIT:          0  dtMISS:          0
cpu0_STLB LOAD         ACCESS:    1627297  HIT:    1479889  MISS:     147408  iACCESS:     388685  iHIT:     379876  iMISS:       8809  dACCESS:    1238612  dHIT:    1100013  dMISS:     138599  itACCESS:          0  itHIT:          0  itMISS:          0  dtACCESS:          0  dtHIT:          0  dtMISS:          0
cpu0_STLB RFO          ACCESS:          0  HIT:          0  MISS:          0  iACCESS:          0  iHIT:          0  iMISS:          0  dACCESS:          0  dHIT:          0  dMISS:          0  itACCESS:          0  itHIT:          0  itMISS:          0  dtACCESS:          0  dtHIT:          0  dtMISS:          0
cpu0_STLB PREFETCH     ACCESS:          0  HIT:          0  MISS:          0  iACCESS:          0  iHIT:          0  iMISS:          0  dACCESS:          0  dHIT:          0  dMISS:          0  itACCESS:          0  itHIT:          0  itMISS:          0  dtACCESS:          0  dtHIT:          0  dtMISS:          0
cpu0_STLB WRITE        ACCESS:          0  HIT:          0  MISS:          0  iACCESS:          0  iHIT:          0  iMISS:          0  dACCESS:          0  dHIT:          0  dMISS:          0  itACCESS:          0  itHIT:          0  itMISS:          0  dtACCESS:          0  dtHIT:          0  dtMISS:          0
cpu0_STLB TRANSLATION  ACCESS:          0  HIT:          0  MISS:          0  iACCESS:          0  iHIT:          0  iMISS:          0  dACCESS:          0  dHIT:          0  dMISS:          0  itACCESS:          0  itHIT:          0  itMISS:          0  dtACCESS:          0  dtHIT:          0  dtMISS:          0
cpu0_STLB PREFETCH  REQUESTED:          0  ISSUED:          0  CROSSED:          0  USEFUL:          0  USELESS:          0
cpu0_STLB AVERAGE iMISS LATENCY: 5.48908 cycles
cpu0_STLB AVERAGE dMISS LATENCY: 87.8443 cycles
cpu0_STLB AVERAGE itMISS LATENCY: 0 cycles
cpu0_STLB AVERAGE dtMISS LATENCY: 0 cycles
cpu0_STLB PAGE CROSSINGS (TLB HIT):         0 
cpu0_STLB PAGE CROSSINGS (TLB MISS):         0 
cpu0_STLB AVERAGE MISS LATENCY: 93.3333 cycles
cpu0_L1D TOTAL       ACCESS:   41446907  HIT:   38030525  MISS:    3416382  iACCESS:          0  iHIT:          0  iMISS:          0  dACCESS:   41228471  dHIT:   38016418  dMISS:    3212053  itACCESS:      10984  itHIT:       1100  itMISS:       9884  dtACCESS:     207452  dtHIT:      13007  dtMISS:     194445
cpu0_L1D LOAD         ACCESS:   18903261  HIT:   17437639  MISS:    1465622  iACCESS:          0  iHIT:          0  iMISS:          0  dACCESS:   18903261  dHIT:   17437639  dMISS:    1465622  itACCESS:          0  itHIT:          0  itMISS:          0  dtACCESS:          0  dtHIT:          0  dtMISS:          0
cpu0_L1D RFO          ACCESS:          0  HIT:          0  MISS:          0  iACCESS:          0  iHIT:          0  iMISS:          0  dACCESS:          0  dHIT:          0  dMISS:          0  itACCESS:          0  itHIT:          0  itMISS:          0  dtACCESS:          0  dtHIT:          0  dtMISS:          0
cpu0_L1D PREFETCH     ACCESS:   12152373  HIT:   10826856  MISS:    1325517  iACCESS:          0  iHIT:          0  iMISS:          0  dACCESS:   12152373  dHIT:   10826856  dMISS:    1325517  itACCESS:          0  itHIT:          0  itMISS:          0  dtACCESS:          0  dtHIT:          0  dtMISS:          0
cpu0_L1D WRITE        ACCESS:   10172837  HIT:    9751923  MISS:     420914  iACCESS:          0  iHIT:          0  iMISS:          0  dACCESS:   10172837  dHIT:    9751923  dMISS:     420914  itACCESS:          0  itHIT:          0  itMISS:          0  dtACCESS:          0  dtHIT:          0  dtMISS:          0
cpu0_L1D TRANSLATION  ACCESS:     218436  HIT:      14107  MISS:     204329  iACCESS:          0  iHIT:          0  iMISS:          0  dACCESS:          0  dHIT:          0  dMISS:          0  itACCESS:      10984  itHIT:       1100  itMISS:       9884  dtACCESS:     207452  dtHIT:      13007  dtMISS:     194445
cpu0_L1D PREFETCH  REQUESTED:   18903261  ISSUED:   17026924  CROSSED:          0  USEFUL:     307083  USELESS:     696759
cpu0_L1D AVERAGE iMISS LATENCY: 0 cycles
cpu0_L1D AVERAGE dMISS LATENCY: 33.8089 cycles
cpu0_L1D AVERAGE itMISS LATENCY: 0.208859 cycles
cpu0_L1D AVERAGE dtMISS LATENCY: 2.95524 cycles
cpu0_L1D PAGE CROSSINGS (TLB HIT):         0 
cpu0_L1D PAGE CROSSINGS (TLB MISS):         0 
cpu0_L1D AVERAGE MISS LATENCY: 36.973 cycles
cpu0_L2C TOTAL       ACCESS:    6920521  HIT:    1637189  MISS:    5283332  iACCESS:    3280841  iHIT:     827004  iMISS:    2453837  dACCESS:    3443890  dHIT:     704123  dMISS:    2739767  itACCESS:       9884  itHIT:       4775  itMISS:       5109  dtACCESS:     185906  dtHIT:     101287  dtMISS:      84619
cpu0_L2C LOAD         ACCESS:    1709864  HIT:     290783  MISS:    1419081  iACCESS:     785643  iHIT:     139470  iMISS:     646173  dACCESS:     924221  dHIT:     151313  dMISS:     772908  itACCESS:          0  itHIT:          0  itMISS:          0  dtACCESS:          0  dtHIT:          0  dtMISS:          0
cpu0_L2C RFO          ACCESS:     157507  HIT:      52137  MISS:     105370  iACCESS:          0  iHIT:          0  iMISS:          0  dACCESS:     157507  dHIT:      52137  dMISS:     105370  itACCESS:          0  itHIT:          0  itMISS:          0  dtACCESS:          0  dtHIT:          0  dtMISS:          0
cpu0_L2C PREFETCH     ACCESS:    4573932  HIT:    1047058  MISS:    3526874  iACCESS:    2495198  iHIT:     687534  iMISS:    1807664  dACCESS:    2078734  dHIT:     359524  dMISS:    1719210  itACCESS:          0  itHIT:          0  itMISS:          0  dtACCESS:          0  dtHIT:          0  dtMISS:          0
cpu0_L2C WRITE        ACCESS:     283428  HIT:     141149  MISS:     142279  iACCESS:          0  iHIT:          0  iMISS:          0  dACCESS:     283428  dHIT:     141149  dMISS:     142279  itACCESS:          0  itHIT:          0  itMISS:          0  dtACCESS:          0  dtHIT:          0  dtMISS:          0
cpu0_L2C TRANSLATION  ACCESS:     195790  HIT:     106062  MISS:      89728  iACCESS:          0  iHIT:          0  iMISS:          0  dACCESS:          0  dHIT:          0  dMISS:          0  itACCESS:       9884  itHIT:       4775  itMISS:       5109  dtACCESS:     185906  dtHIT:     101287  dtMISS:      84619
cpu0_L2C PREFETCH  REQUESTED:    1323426  ISSUED:    1323426  CROSSED:          0  USEFUL:     394389  USELESS:     362974
cpu0_L2C AVERAGE iMISS LATENCY: 15.3014 cycles
cpu0_L2C AVERAGE dMISS LATENCY: 24.952 cycles
cpu0_L2C AVERAGE itMISS LATENCY: 0.117202 cycles
cpu0_L2C AVERAGE dtMISS LATENCY: 1.57635 cycles
cpu0_L2C PAGE CROSSINGS (TLB HIT):         0 
cpu0_L2C PAGE CROSSINGS (TLB MISS):         0 
cpu0_L2C AVERAGE MISS LATENCY: 41.9469 cycles
LLC TOTAL       ACCESS:    5173369  HIT:    4387449  MISS:     785920  iACCESS:    2403170  iHIT:    2173000  iMISS:     230170  dACCESS:    2680471  dHIT:    2166208  dMISS:     514263  itACCESS:       5109  itHIT:       2121  itMISS:       2988  dtACCESS:      84619  dtHIT:      46120  dtMISS:      38499
LLC LOAD         ACCESS:    1417487  HIT:    1233812  MISS:     183675  iACCESS:     644911  iHIT:     591955  iMISS:      52956  dACCESS:     772576  dHIT:     641857  dMISS:     130719  itACCESS:          0  itHIT:          0  itMISS:          0  dtACCESS:          0  dtHIT:          0  dtMISS:          0
LLC RFO          ACCESS:     105363  HIT:      71263  MISS:      34100  iACCESS:          0  iHIT:          0  iMISS:          0  dACCESS:     105363  dHIT:      71263  dMISS:      34100  itACCESS:          0  itHIT:          0  itMISS:          0  dtACCESS:          0  dtHIT:          0  dtMISS:          0
LLC PREFETCH     ACCESS:    3425260  HIT:    2907658  MISS:     517602  iACCESS:    1758259  iHIT:    1581045  iMISS:     177214  dACCESS:    1667001  dHIT:    1326613  dMISS:     340388  itACCESS:          0  itHIT:          0  itMISS:          0  dtACCESS:          0  dtHIT:          0  dtMISS:          0
LLC WRITE        ACCESS:     135531  HIT:     126475  MISS:       9056  iACCESS:          0  iHIT:          0  iMISS:          0  dACCESS:     135531  dHIT:     126475  dMISS:       9056  itACCESS:          0  itHIT:          0  itMISS:          0  dtACCESS:          0  dtHIT:          0  dtMISS:          0
LLC TRANSLATION  ACCESS:      89728  HIT:      48241  MISS:      41487  iACCESS:          0  iHIT:          0  iMISS:          0  dACCESS:          0  dHIT:          0  dMISS:          0  itACCESS:       5109  itHIT:       2121  itMISS:       2988  dtACCESS:      84619  dtHIT:      46120  dtMISS:      38499
LLC PREFETCH  REQUESTED:          0  ISSUED:          0  CROSSED:          0  USEFUL:          0  USELESS:          0
LLC AVERAGE iMISS LATENCY: 43.8948 cycles
LLC AVERAGE dMISS LATENCY: 105.191 cycles
LLC AVERAGE itMISS LATENCY: 0.660862 cycles
LLC AVERAGE dtMISS LATENCY: 8.50237 cycles
LLC PAGE CROSSINGS (TLB HIT):         0 
LLC PAGE CROSSINGS (TLB MISS):         0 
LLC AVERAGE MISS LATENCY: 158.249 cycles

PageTableWalker TOTAL       ACCESS:      73796  
PageTableWalker AVERAGE LATENCY: 5.0754 cycles
PageTableWalker TOTAL LATENCY: 374544 cycles

DRAM Statistics
Channel 0
 RQ ROW_BUFFER_HIT:     201103
  ROW_BUFFER_MISS:     575723
 AVG DBUS CONGESTED CYCLE:    3.62367
 WQ ROW_BUFFER_HIT:      15220
  ROW_BUFFER_MISS:      21126  FULL:          0

