last_page:0x200000000000000
VMEM_RES_CAP:0x100000
PAGE_SIZE:4096
LOG2_PAGE_SIZE:12
LOG2_PAGE_TABLE_SIZE:9
page_table_levels:5
WARNING: physical memory size is smaller than virtual memory size
FDiP enabled with aggresivity 16

*** ChampSim Multicore Out-of-Order Simulator ***

Warmup Instructions: 50000000
Simulation Instructions: 100000000
Number of CPUs: 1
Small page size: 4096
Large page size: 2097152

CPU 0 Bimodal branch predictor
Basic BTB sets: 1024 ways: 8 indirect buffer size: 4096 RAS size: 64
Instruction page size distrubution: 0
Loading instruction page size distribution from /home/bsc/bsc018186/scratch/itp_asplos25_AE/dump/srv612_ap.pdst
Data page size distrubution: 0
Loading data page size distribution from /home/bsc/bsc018186/scratch/itp_asplos25_AE/dump/srv612_ap.pdst
cpu0_L2C IP-based stride prefetcher
cpu0_L1D next line prefetcher
cpu0_L1I next line prefetcher
Off-chip DRAM Size: 4 GiB Channels: 1 Width: 64-bit Data Rate: 3200 MT/s
Heartbeat CPU 0 instructions: 10000004 cycles: 2781543 heartbeat IPC: 3.59513 cumulative IPC: 3.59513 (Simulation time: 0 hr 0 min 35 sec) 
Heartbeat CPU 0 instructions: 20000003 cycles: 5759665 heartbeat IPC: 3.35783 cumulative IPC: 3.47243 (Simulation time: 0 hr 1 min 12 sec) 
Heartbeat CPU 0 instructions: 30000004 cycles: 8545802 heartbeat IPC: 3.5892 cumulative IPC: 3.5105 (Simulation time: 0 hr 1 min 44 sec) 
Heartbeat CPU 0 instructions: 40000002 cycles: 11194826 heartbeat IPC: 3.77498 cumulative IPC: 3.57308 (Simulation time: 0 hr 2 min 16 sec) 
Heartbeat CPU 0 instructions: 50000000 cycles: 13719107 heartbeat IPC: 3.96153 cumulative IPC: 3.64456 (Simulation time: 0 hr 2 min 47 sec) 
Warmup finished CPU 0 instructions: 50000000 cycles: 13719108 cumulative IPC: 3.64456 (Simulation time: 0 hr 2 min 47 sec) 

Warmup complete CPU 0 instructions: 50000000 cycles: 13719108 (Simulation time: 0 hr 2 min 47 sec) 

Heartbeat CPU 0 instructions: 60000001 cycles: 55483807 heartbeat IPC: 0.239437 cumulative IPC: 0.239437 (Simulation time: 0 hr 4 min 51 sec) 
Heartbeat CPU 0 instructions: 70000003 cycles: 110171839 heartbeat IPC: 0.182856 cumulative IPC: 0.207356 (Simulation time: 0 hr 7 min 27 sec) 
Heartbeat CPU 0 instructions: 80000000 cycles: 143768447 heartbeat IPC: 0.29765 cumulative IPC: 0.230682 (Simulation time: 0 hr 9 min 14 sec) 
Heartbeat CPU 0 instructions: 90000003 cycles: 173057299 heartbeat IPC: 0.341427 cumulative IPC: 0.251039 (Simulation time: 0 hr 10 min 51 sec) 
Heartbeat CPU 0 instructions: 100000001 cycles: 196423634 heartbeat IPC: 0.427967 cumulative IPC: 0.273666 (Simulation time: 0 hr 12 min 16 sec) 
*** Reached end of trace: /gpfs/projects/bsc18/MN4/bsc18/romol/ChampSim/traces/qualcomm_srv/srv612_ap.champsimtrace.xz
Heartbeat CPU 0 instructions: 110000000 cycles: 210586898 heartbeat IPC: 0.706052 cumulative IPC: 0.304774 (Simulation time: 0 hr 13 min 23 sec) 
Heartbeat CPU 0 instructions: 120000004 cycles: 219758250 heartbeat IPC: 1.09036 cumulative IPC: 0.339742 (Simulation time: 0 hr 14 min 17 sec) 
Heartbeat CPU 0 instructions: 130000004 cycles: 227886979 heartbeat IPC: 1.23021 cumulative IPC: 0.373539 (Simulation time: 0 hr 15 min 7 sec) 
Heartbeat CPU 0 instructions: 140000000 cycles: 235630147 heartbeat IPC: 1.29147 cumulative IPC: 0.405568 (Simulation time: 0 hr 15 min 54 sec) 
Heartbeat CPU 0 instructions: 150000000 cycles: 256789332 heartbeat IPC: 0.472608 cumulative IPC: 0.411404 (Simulation time: 0 hr 17 min 10 sec) 
Simulation finished CPU 0 instructions: 100000000 cycles: 243070225 cumulative IPC: 0.411404 (Simulation time: 0 hr 17 min 10 sec) 

Simulation complete CPU 0 instructions: 100000000 cycles: 243070225 (Simulation time: 0 hr 17 min 10 sec) 


ChampSim completed all CPUs

Saving instructions large page distribution to /home/bsc/bsc018186/scratch/itp_asplos25_AE/dump/srv612_ap.pdst...
Saving data large page distribution to /home/bsc/bsc018186/scratch/itp_asplos25_AE/dump/srv612_ap.pdst...
=== Simulation ===
CPU 0 runs /gpfs/projects/bsc18/MN4/bsc18/romol/ChampSim/traces/qualcomm_srv/srv612_ap.champsimtrace.xz

Region of Interest Statistics

CPU 0 cumulative IPC: 0.411404 instructions: 100000000 cycles: 243070225
CPU 0 Branch Prediction Accuracy: 96.6997% MPKI: 7.15989 Average ROB Occupancy at Mispredict: 86.5162
Branch type MPKI
BRANCH_DIRECT_JUMP: 0.0386401
BRANCH_INDIRECT: 3.27509
BRANCH_CONDITIONAL: 3.54837
BRANCH_DIRECT_CALL: 0.0661401
BRANCH_INDIRECT_CALL: 0.173461
BRANCH_RETURN: 0.0582001

Instructions large pages: 0
Instructions small pages: 1273
Large page distribution for instructions: 0%

Data large pages: 0
Data small pages: 21910
Large page distribution for data: 0%

cpu0_L1I TOTAL       ACCESS:   15118451  HIT:   14639873  MISS:     478578  iACCESS:   15118451  iHIT:   14639873  iMISS:     478578  dACCESS:          0  dHIT:          0  dMISS:          0  itACCESS:          0  itHIT:          0  itMISS:          0  dtACCESS:          0  dtHIT:          0  dtMISS:          0
cpu0_L1I LOAD         ACCESS:     882364  HIT:     738468  MISS:     143896  iACCESS:     882364  iHIT:     738468  iMISS:     143896  dACCESS:          0  dHIT:          0  dMISS:          0  itACCESS:          0  itHIT:          0  itMISS:          0  dtACCESS:          0  dtHIT:          0  dtMISS:          0
cpu0_L1I RFO          ACCESS:          0  HIT:          0  MISS:          0  iACCESS:          0  iHIT:          0  iMISS:          0  dACCESS:          0  dHIT:          0  dMISS:          0  itACCESS:          0  itHIT:          0  itMISS:          0  dtACCESS:          0  dtHIT:          0  dtMISS:          0
cpu0_L1I PREFETCH     ACCESS:   14236087  HIT:   13901405  MISS:     334682  iACCESS:   14236087  iHIT:   13901405  iMISS:     334682  dACCESS:          0  dHIT:          0  dMISS:          0  itACCESS:          0  itHIT:          0  itMISS:          0  dtACCESS:          0  dtHIT:          0  dtMISS:          0
cpu0_L1I WRITE        ACCESS:          0  HIT:          0  MISS:          0  iACCESS:          0  iHIT:          0  iMISS:          0  dACCESS:          0  dHIT:          0  dMISS:          0  itACCESS:          0  itHIT:          0  itMISS:          0  dtACCESS:          0  dtHIT:          0  dtMISS:          0
cpu0_L1I TRANSLATION  ACCESS:          0  HIT:          0  MISS:          0  iACCESS:          0  iHIT:          0  iMISS:          0  dACCESS:          0  dHIT:          0  dMISS:          0  itACCESS:          0  itHIT:          0  itMISS:          0  dtACCESS:          0  dtHIT:          0  dtMISS:          0
cpu0_L1I PREFETCH  REQUESTED:   14441110  ISSUED:   14436902  CROSSED:          0  USEFUL:      95171  USELESS:      35740
cpu0_L1I AVERAGE iMISS LATENCY: 20.0677 cycles
cpu0_L1I AVERAGE dMISS LATENCY: 0 cycles
cpu0_L1I AVERAGE itMISS LATENCY: 0 cycles
cpu0_L1I AVERAGE dtMISS LATENCY: 0 cycles
cpu0_L1I PAGE CROSSINGS (TLB HIT):         0 
cpu0_L1I PAGE CROSSINGS (TLB MISS):         0 
cpu0_L1I AVERAGE MISS LATENCY: 20.0677 cycles
cpu0_ITLB TOTAL       ACCESS:   13537970  HIT:   13418269  MISS:     119701  iACCESS:   13537970  iHIT:   13418269  iMISS:     119701  dACCESS:          0  dHIT:          0  dMISS:          0  itACCESS:          0  itHIT:          0  itMISS:          0  dtACCESS:          0  dtHIT:          0  dtMISS:          0
cpu0_ITLB LOAD         ACCESS:   13537970  HIT:   13418269  MISS:     119701  iACCESS:   13537970  iHIT:   13418269  iMISS:     119701  dACCESS:          0  dHIT:          0  dMISS:          0  itACCESS:          0  itHIT:          0  itMISS:          0  dtACCESS:          0  dtHIT:          0  dtMISS:          0
cpu0_ITLB RFO          ACCESS:          0  HIT:          0  MISS:          0  iACCESS:          0  iHIT:          0  iMISS:          0  dACCESS:          0  dHIT:          0  dMISS:          0  itACCESS:          0  itHIT:          0  itMISS:          0  dtACCESS:          0  dtHIT:          0  dtMISS:          0
cpu0_ITLB PREFETCH     ACCESS:          0  HIT:          0  MISS:          0  iACCESS:          0  iHIT:          0  iMISS:          0  dACCESS:          0  dHIT:          0  dMISS:          0  itACCESS:          0  itHIT:          0  itMISS:          0  dtACCESS:          0  dtHIT:          0  dtMISS:          0
cpu0_ITLB WRITE        ACCESS:          0  HIT:          0  MISS:          0  iACCESS:          0  iHIT:          0  iMISS:          0  dACCESS:          0  dHIT:          0  dMISS:          0  itACCESS:          0  itHIT:          0  itMISS:          0  dtACCESS:          0  dtHIT:          0  dtMISS:          0
cpu0_ITLB TRANSLATION  ACCESS:          0  HIT:          0  MISS:          0  iACCESS:          0  iHIT:          0  iMISS:          0  dACCESS:          0  dHIT:          0  dMISS:          0  itACCESS:          0  itHIT:          0  itMISS:          0  dtACCESS:          0  dtHIT:          0  dtMISS:          0
cpu0_ITLB PREFETCH  REQUESTED:          0  ISSUED:          0  CROSSED:          0  USEFUL:      16509  USELESS:       4075
cpu0_ITLB AVERAGE iMISS LATENCY: 6.27207 cycles
cpu0_ITLB AVERAGE dMISS LATENCY: 0 cycles
cpu0_ITLB AVERAGE itMISS LATENCY: 0 cycles
cpu0_ITLB AVERAGE dtMISS LATENCY: 0 cycles
cpu0_ITLB PAGE CROSSINGS (TLB HIT):         0 
cpu0_ITLB PAGE CROSSINGS (TLB MISS):         0 
cpu0_ITLB AVERAGE MISS LATENCY: 6.27207 cycles
cpu0_DTLB TOTAL       ACCESS:   27377750  HIT:   22626097  MISS:    4751653  iACCESS:          0  iHIT:          0  iMISS:          0  dACCESS:   27377750  dHIT:   22626097  dMISS:    4751653  itACCESS:          0  itHIT:          0  itMISS:          0  dtACCESS:          0  dtHIT:          0  dtMISS:          0
cpu0_DTLB LOAD         ACCESS:   27377750  HIT:   22626097  MISS:    4751653  iACCESS:          0  iHIT:          0  iMISS:          0  dACCESS:   27377750  dHIT:   22626097  dMISS:    4751653  itACCESS:          0  itHIT:          0  itMISS:          0  dtACCESS:          0  dtHIT:          0  dtMISS:          0
cpu0_DTLB RFO          ACCESS:          0  HIT:          0  MISS:          0  iACCESS:          0  iHIT:          0  iMISS:          0  dACCESS:          0  dHIT:          0  dMISS:          0  itACCESS:          0  itHIT:          0  itMISS:          0  dtACCESS:          0  dtHIT:          0  dtMISS:          0
cpu0_DTLB PREFETCH     ACCESS:          0  HIT:          0  MISS:          0  iACCESS:          0  iHIT:          0  iMISS:          0  dACCESS:          0  dHIT:          0  dMISS:          0  itACCESS:          0  itHIT:          0  itMISS:          0  dtACCESS:          0  dtHIT:          0  dtMISS:          0
cpu0_DTLB WRITE        ACCESS:          0  HIT:          0  MISS:          0  iACCESS:          0  iHIT:          0  iMISS:          0  dACCESS:          0  dHIT:          0  dMISS:          0  itACCESS:          0  itHIT:          0  itMISS:          0  dtACCESS:          0  dtHIT:          0  dtMISS:          0
cpu0_DTLB TRANSLATION  ACCESS:          0  HIT:          0  MISS:          0  iACCESS:          0  iHIT:          0  iMISS:          0  dACCESS:          0  dHIT:          0  dMISS:          0  itACCESS:          0  itHIT:          0  itMISS:          0  dtACCESS:          0  dtHIT:          0  dtMISS:          0
cpu0_DTLB PREFETCH  REQUESTED:          0  ISSUED:          0  CROSSED:          0  USEFUL:          0  USELESS:          0
cpu0_DTLB AVERAGE iMISS LATENCY: 0 cycles
cpu0_DTLB AVERAGE dMISS LATENCY: 6.70019 cycles
cpu0_DTLB AVERAGE itMISS LATENCY: 0 cycles
cpu0_DTLB AVERAGE dtMISS LATENCY: 0 cycles
cpu0_DTLB PAGE CROSSINGS (TLB HIT):         0 
cpu0_DTLB PAGE CROSSINGS (TLB MISS):         0 
cpu0_DTLB AVERAGE MISS LATENCY: 6.70019 cycles
cpu0_STLB TOTAL       ACCESS:    2953834  HIT:    2822142  MISS:     131692  iACCESS:      20584  iHIT:      16622  iMISS:       3962  dACCESS:    2933250  dHIT:    2805520  dMISS:     127730  itACCESS:          0  itHIT:          0  itMISS:          0  dtACCESS:          0  dtHIT:          0  dtMISS:          0
cpu0_STLB LOAD         ACCESS:    2953834  HIT:    2822142  MISS:     131692  iACCESS:      20584  iHIT:      16622  iMISS:       3962  dACCESS:    2933250  dHIT:    2805520  dMISS:     127730  itACCESS:          0  itHIT:          0  itMISS:          0  dtACCESS:          0  dtHIT:          0  dtMISS:          0
cpu0_STLB RFO          ACCESS:          0  HIT:          0  MISS:          0  iACCESS:          0  iHIT:          0  iMISS:          0  dACCESS:          0  dHIT:          0  dMISS:          0  itACCESS:          0  itHIT:          0  itMISS:          0  dtACCESS:          0  dtHIT:          0  dtMISS:          0
cpu0_STLB PREFETCH     ACCESS:          0  HIT:          0  MISS:          0  iACCESS:          0  iHIT:          0  iMISS:          0  dACCESS:          0  dHIT:          0  dMISS:          0  itACCESS:          0  itHIT:          0  itMISS:          0  dtACCESS:          0  dtHIT:          0  dtMISS:          0
cpu0_STLB WRITE        ACCESS:          0  HIT:          0  MISS:          0  iACCESS:          0  iHIT:          0  iMISS:          0  dACCESS:          0  dHIT:          0  dMISS:          0  itACCESS:          0  itHIT:          0  itMISS:          0  dtACCESS:          0  dtHIT:          0  dtMISS:          0
cpu0_STLB TRANSLATION  ACCESS:          0  HIT:          0  MISS:          0  iACCESS:          0  iHIT:          0  iMISS:          0  dACCESS:          0  dHIT:          0  dMISS:          0  itACCESS:          0  itHIT:          0  itMISS:          0  dtACCESS:          0  dtHIT:          0  dtMISS:          0
cpu0_STLB PREFETCH  REQUESTED:          0  ISSUED:          0  CROSSED:          0  USEFUL:          0  USELESS:          0
cpu0_STLB AVERAGE iMISS LATENCY: 4.457 cycles
cpu0_STLB AVERAGE dMISS LATENCY: 60.5415 cycles
cpu0_STLB AVERAGE itMISS LATENCY: 0 cycles
cpu0_STLB AVERAGE dtMISS LATENCY: 0 cycles
cpu0_STLB PAGE CROSSINGS (TLB HIT):         0 
cpu0_STLB PAGE CROSSINGS (TLB MISS):         0 
cpu0_STLB AVERAGE MISS LATENCY: 64.9985 cycles
cpu0_L1D TOTAL       ACCESS:  161105170  HIT:   31987969  MISS:  129117201  iACCESS:          0  iHIT:          0  iMISS:          0  dACCESS:  160756375  dHIT:   31958186  dMISS:  128798189  itACCESS:       4588  itHIT:        570  itMISS:       4018  dtACCESS:     344207  dtHIT:      29213  dtMISS:     314994
cpu0_L1D LOAD         ACCESS:   70675207  HIT:   16706598  MISS:   53968609  iACCESS:          0  iHIT:          0  iMISS:          0  dACCESS:   70675207  dHIT:   16706598  dMISS:   53968609  itACCESS:          0  itHIT:          0  itMISS:          0  dtACCESS:          0  dtHIT:          0  dtMISS:          0
cpu0_L1D RFO          ACCESS:          0  HIT:          0  MISS:          0  iACCESS:          0  iHIT:          0  iMISS:          0  dACCESS:          0  dHIT:          0  dMISS:          0  itACCESS:          0  itHIT:          0  itMISS:          0  dtACCESS:          0  dtHIT:          0  dtMISS:          0
cpu0_L1D PREFETCH     ACCESS:   83466264  HIT:    9840069  MISS:   73626195  iACCESS:          0  iHIT:          0  iMISS:          0  dACCESS:   83466264  dHIT:    9840069  dMISS:   73626195  itACCESS:          0  itHIT:          0  itMISS:          0  dtACCESS:          0  dtHIT:          0  dtMISS:          0
cpu0_L1D WRITE        ACCESS:    6614904  HIT:    5411519  MISS:    1203385  iACCESS:          0  iHIT:          0  iMISS:          0  dACCESS:    6614904  dHIT:    5411519  dMISS:    1203385  itACCESS:          0  itHIT:          0  itMISS:          0  dtACCESS:          0  dtHIT:          0  dtMISS:          0
cpu0_L1D TRANSLATION  ACCESS:     348795  HIT:      29783  MISS:     319012  iACCESS:          0  iHIT:          0  iMISS:          0  dACCESS:          0  dHIT:          0  dMISS:          0  itACCESS:       4588  itHIT:        570  itMISS:       4018  dtACCESS:     344207  dtHIT:      29213  dtMISS:     314994
cpu0_L1D PREFETCH  REQUESTED:   70675207  ISSUED:   27800137  CROSSED:          0  USEFUL:     167320  USELESS:    1263323
cpu0_L1D AVERAGE iMISS LATENCY: 0 cycles
cpu0_L1D AVERAGE dMISS LATENCY: 17.4498 cycles
cpu0_L1D AVERAGE itMISS LATENCY: 0.0042375 cycles
cpu0_L1D AVERAGE dtMISS LATENCY: 0.0384602 cycles
cpu0_L1D PAGE CROSSINGS (TLB HIT):         0 
cpu0_L1D PAGE CROSSINGS (TLB MISS):         0 
cpu0_L1D AVERAGE MISS LATENCY: 17.4925 cycles
cpu0_L2C TOTAL       ACCESS:    6167753  HIT:    1340772  MISS:    4826981  iACCESS:     172605  iHIT:      62271  iMISS:     110334  dACCESS:    5913835  dHIT:    1222981  dMISS:    4690854  itACCESS:       3792  itHIT:       1285  itMISS:       2507  dtACCESS:      77521  dtHIT:      54235  dtMISS:      23286
cpu0_L2C LOAD         ACCESS:    3830678  HIT:     977528  MISS:    2853150  iACCESS:      43159  iHIT:      14539  iMISS:      28620  dACCESS:    3787519  dHIT:     962989  dMISS:    2824530  itACCESS:          0  itHIT:          0  itMISS:          0  dtACCESS:          0  dtHIT:          0  dtMISS:          0
cpu0_L2C RFO          ACCESS:     113701  HIT:      28618  MISS:      85083  iACCESS:          0  iHIT:          0  iMISS:          0  dACCESS:     113701  dHIT:      28618  dMISS:      85083  itACCESS:          0  itHIT:          0  itMISS:          0  dtACCESS:          0  dtHIT:          0  dtMISS:          0
cpu0_L2C PREFETCH     ACCESS:    2034860  HIT:     236089  MISS:    1798771  iACCESS:     129446  iHIT:      47732  iMISS:      81714  dACCESS:    1905414  dHIT:     188357  dMISS:    1717057  itACCESS:          0  itHIT:          0  itMISS:          0  dtACCESS:          0  dtHIT:          0  dtMISS:          0
cpu0_L2C WRITE        ACCESS:     107201  HIT:      43017  MISS:      64184  iACCESS:          0  iHIT:          0  iMISS:          0  dACCESS:     107201  dHIT:      43017  dMISS:      64184  itACCESS:          0  itHIT:          0  itMISS:          0  dtACCESS:          0  dtHIT:          0  dtMISS:          0
cpu0_L2C TRANSLATION  ACCESS:      81313  HIT:      55520  MISS:      25793  iACCESS:          0  iHIT:          0  iMISS:          0  dACCESS:          0  dHIT:          0  dMISS:          0  itACCESS:       3792  itHIT:       1285  itMISS:       2507  dtACCESS:      77521  dtHIT:      54235  dtMISS:      23286
cpu0_L2C PREFETCH  REQUESTED:     494953  ISSUED:     494115  CROSSED:          0  USEFUL:      66096  USELESS:     224255
cpu0_L2C AVERAGE iMISS LATENCY: 1.67074 cycles
cpu0_L2C AVERAGE dMISS LATENCY: 465.411 cycles
cpu0_L2C AVERAGE itMISS LATENCY: 0.105735 cycles
cpu0_L2C AVERAGE dtMISS LATENCY: 0.87684 cycles
cpu0_L2C PAGE CROSSINGS (TLB HIT):         0 
cpu0_L2C PAGE CROSSINGS (TLB MISS):         0 
cpu0_L2C AVERAGE MISS LATENCY: 468.064 cycles
LLC TOTAL       ACCESS:    4627587  HIT:    2407025  MISS:    2220562  iACCESS:     107884  iHIT:      75580  iMISS:      32304  dACCESS:    4493910  dHIT:    2321314  dMISS:    2172596  itACCESS:       2507  itHIT:        267  itMISS:       2240  dtACCESS:      23286  dtHIT:       9864  dtMISS:      13422
LLC LOAD         ACCESS:    2850486  HIT:    1708674  MISS:    1141812  iACCESS:      28563  iHIT:      21450  iMISS:       7113  dACCESS:    2821923  dHIT:    1687224  dMISS:    1134699  itACCESS:          0  itHIT:          0  itMISS:          0  dtACCESS:          0  dtHIT:          0  dtMISS:          0
LLC RFO          ACCESS:      85065  HIT:       5903  MISS:      79162  iACCESS:          0  iHIT:          0  iMISS:          0  dACCESS:      85065  dHIT:       5903  dMISS:      79162  itACCESS:          0  itHIT:          0  itMISS:          0  dtACCESS:          0  dtHIT:          0  dtMISS:          0
LLC PREFETCH     ACCESS:    1577293  HIT:     597242  MISS:     980051  iACCESS:      79321  iHIT:      54130  iMISS:      25191  dACCESS:    1497972  dHIT:     543112  dMISS:     954860  itACCESS:          0  itHIT:          0  itMISS:          0  dtACCESS:          0  dtHIT:          0  dtMISS:          0
LLC WRITE        ACCESS:      88950  HIT:      85075  MISS:       3875  iACCESS:          0  iHIT:          0  iMISS:          0  dACCESS:      88950  dHIT:      85075  dMISS:       3875  itACCESS:          0  itHIT:          0  itMISS:          0  dtACCESS:          0  dtHIT:          0  dtMISS:          0
LLC TRANSLATION  ACCESS:      25793  HIT:      10131  MISS:      15662  iACCESS:          0  iHIT:          0  iMISS:          0  dACCESS:          0  dHIT:          0  dMISS:          0  itACCESS:       2507  itHIT:        267  itMISS:       2240  dtACCESS:      23286  dtHIT:       9864  dtMISS:      13422
LLC PREFETCH  REQUESTED:          0  ISSUED:          0  CROSSED:          0  USEFUL:          0  USELESS:          0
LLC AVERAGE iMISS LATENCY: 2.6876 cycles
LLC AVERAGE dMISS LATENCY: 973.436 cycles
LLC AVERAGE itMISS LATENCY: 0.207532 cycles
LLC AVERAGE dtMISS LATENCY: 1.70146 cycles
LLC PAGE CROSSINGS (TLB HIT):         0 
LLC PAGE CROSSINGS (TLB MISS):         0 
LLC AVERAGE MISS LATENCY: 978.032 cycles

PageTableWalker TOTAL       ACCESS:      29318  
PageTableWalker AVERAGE LATENCY: 3.27264 cycles
PageTableWalker TOTAL LATENCY: 95947 cycles

DRAM Statistics
Channel 0
 RQ ROW_BUFFER_HIT:     390842
  ROW_BUFFER_MISS:    1822962
 AVG DBUS CONGESTED CYCLE:    3.88117
 WQ ROW_BUFFER_HIT:      11655
  ROW_BUFFER_MISS:      68011  FULL:          0

