last_page:0x200000000000000
VMEM_RES_CAP:0x100000
PAGE_SIZE:4096
LOG2_PAGE_SIZE:12
LOG2_PAGE_TABLE_SIZE:9
page_table_levels:5
WARNING: physical memory size is smaller than virtual memory size
FDiP enabled with aggresivity 16

*** ChampSim Multicore Out-of-Order Simulator ***

Warmup Instructions: 50000000
Simulation Instructions: 100000000
Number of CPUs: 1
Small page size: 4096
Large page size: 2097152

CPU 0 Bimodal branch predictor
Basic BTB sets: 1024 ways: 8 indirect buffer size: 4096 RAS size: 64
Instruction page size distrubution: 0
Loading instruction page size distribution from /home/bsc/bsc018186/scratch/itp_asplos25_AE/dump/srv675_ap.pdst
Data page size distrubution: 0
Loading data page size distribution from /home/bsc/bsc018186/scratch/itp_asplos25_AE/dump/srv675_ap.pdst
cpu0_L2C IP-based stride prefetcher
cpu0_L2C is using PTP replacement policy:
	TLB_STRESS_THRESHOLD:0
	PTE_EVICTION_RATIO:0
cpu0_L1D next line prefetcher
cpu0_STLB using iTP with max lru@8
cpu0_STLB using iTP with instr@0 and data@2
Init sat counter with 3 bits (max:50).
cpu0_L1I next line prefetcher
Off-chip DRAM Size: 4 GiB Channels: 1 Width: 64-bit Data Rate: 3200 MT/s
Heartbeat CPU 0 instructions: 10000000 cycles: 2500204 heartbeat IPC: 3.99968 cumulative IPC: 3.99968 (Simulation time: 0 hr 0 min 40 sec) 
Heartbeat CPU 0 instructions: 20000002 cycles: 5000210 heartbeat IPC: 4 cumulative IPC: 3.99984 (Simulation time: 0 hr 1 min 22 sec) 
Heartbeat CPU 0 instructions: 30000003 cycles: 7500276 heartbeat IPC: 3.9999 cumulative IPC: 3.99986 (Simulation time: 0 hr 2 min 4 sec) 
Heartbeat CPU 0 instructions: 40000001 cycles: 10000324 heartbeat IPC: 3.99993 cumulative IPC: 3.99988 (Simulation time: 0 hr 2 min 47 sec) 
Heartbeat CPU 0 instructions: 50000001 cycles: 12502017 heartbeat IPC: 3.9973 cumulative IPC: 3.99936 (Simulation time: 0 hr 3 min 30 sec) 
Warmup finished CPU 0 instructions: 50000001 cycles: 12502018 cumulative IPC: 3.99936 (Simulation time: 0 hr 3 min 30 sec) 

Warmup complete CPU 0 instructions: 50000001 cycles: 12502018 (Simulation time: 0 hr 3 min 30 sec) 

Heartbeat CPU 0 instructions: 60000000 cycles: 26536050 heartbeat IPC: 0.712554 cumulative IPC: 0.712554 (Simulation time: 0 hr 4 min 37 sec) 
Heartbeat CPU 0 instructions: 70000000 cycles: 41110119 heartbeat IPC: 0.686151 cumulative IPC: 0.699103 (Simulation time: 0 hr 5 min 45 sec) 
Heartbeat CPU 0 instructions: 80000004 cycles: 55152367 heartbeat IPC: 0.712137 cumulative IPC: 0.703395 (Simulation time: 0 hr 6 min 53 sec) 
Heartbeat CPU 0 instructions: 90000004 cycles: 69303698 heartbeat IPC: 0.706648 cumulative IPC: 0.704205 (Simulation time: 0 hr 8 min 1 sec) 
Heartbeat CPU 0 instructions: 100000002 cycles: 82793777 heartbeat IPC: 0.741286 cumulative IPC: 0.711321 (Simulation time: 0 hr 9 min 3 sec) 
*** Reached end of trace: /gpfs/projects/bsc18/MN4/bsc18/romol/ChampSim/traces/qualcomm_srv/srv675_ap.champsimtrace.xz
Heartbeat CPU 0 instructions: 110000001 cycles: 96653702 heartbeat IPC: 0.721505 cumulative IPC: 0.712999 (Simulation time: 0 hr 10 min 7 sec) 
Heartbeat CPU 0 instructions: 120000000 cycles: 110358799 heartbeat IPC: 0.729656 cumulative IPC: 0.715332 (Simulation time: 0 hr 11 min 10 sec) 
Heartbeat CPU 0 instructions: 130000000 cycles: 124098717 heartbeat IPC: 0.727807 cumulative IPC: 0.716868 (Simulation time: 0 hr 12 min 13 sec) 
Heartbeat CPU 0 instructions: 140000000 cycles: 137799631 heartbeat IPC: 0.729879 cumulative IPC: 0.71829 (Simulation time: 0 hr 13 min 14 sec) 
Heartbeat CPU 0 instructions: 150000001 cycles: 151698124 heartbeat IPC: 0.719503 cumulative IPC: 0.718411 (Simulation time: 0 hr 14 min 18 sec) 
Simulation finished CPU 0 instructions: 100000000 cycles: 139196107 cumulative IPC: 0.718411 (Simulation time: 0 hr 14 min 18 sec) 

Simulation complete CPU 0 instructions: 100000000 cycles: 139196107 (Simulation time: 0 hr 14 min 18 sec) 


ChampSim completed all CPUs

Saving instructions large page distribution to /home/bsc/bsc018186/scratch/itp_asplos25_AE/dump/srv675_ap.pdst...
Saving data large page distribution to /home/bsc/bsc018186/scratch/itp_asplos25_AE/dump/srv675_ap.pdst...
=== Simulation ===
CPU 0 runs /gpfs/projects/bsc18/MN4/bsc18/romol/ChampSim/traces/qualcomm_srv/srv675_ap.champsimtrace.xz

Region of Interest Statistics

CPU 0 cumulative IPC: 0.718411 instructions: 100000000 cycles: 139196107
CPU 0 Branch Prediction Accuracy: 83.474% MPKI: 29.6585 Average ROB Occupancy at Mispredict: 12.5203
Branch type MPKI
BRANCH_DIRECT_JUMP: 0.942471
BRANCH_INDIRECT: 15.3874
BRANCH_CONDITIONAL: 9.71212
BRANCH_DIRECT_CALL: 1.80424
BRANCH_INDIRECT_CALL: 0.498511
BRANCH_RETURN: 1.31373

Instructions large pages: 0
Instructions small pages: 10164
Large page distribution for instructions: 0%

Data large pages: 0
Data small pages: 9227
Large page distribution for data: 0%

cpu0_L1I TOTAL       ACCESS:   35134787  HIT:   26525886  MISS:    8608901  iACCESS:   35134787  iHIT:   26525886  iMISS:    8608901  dACCESS:          0  dHIT:          0  dMISS:          0  itACCESS:          0  itHIT:          0  itMISS:          0  dtACCESS:          0  dtHIT:          0  dtMISS:          0
cpu0_L1I LOAD         ACCESS:   10242415  HIT:    7833123  MISS:    2409292  iACCESS:   10242415  iHIT:    7833123  iMISS:    2409292  dACCESS:          0  dHIT:          0  dMISS:          0  itACCESS:          0  itHIT:          0  itMISS:          0  dtACCESS:          0  dtHIT:          0  dtMISS:          0
cpu0_L1I RFO          ACCESS:          0  HIT:          0  MISS:          0  iACCESS:          0  iHIT:          0  iMISS:          0  dACCESS:          0  dHIT:          0  dMISS:          0  itACCESS:          0  itHIT:          0  itMISS:          0  dtACCESS:          0  dtHIT:          0  dtMISS:          0
cpu0_L1I PREFETCH     ACCESS:   24892372  HIT:   18692763  MISS:    6199609  iACCESS:   24892372  iHIT:   18692763  iMISS:    6199609  dACCESS:          0  dHIT:          0  dMISS:          0  itACCESS:          0  itHIT:          0  itMISS:          0  dtACCESS:          0  dtHIT:          0  dtMISS:          0
cpu0_L1I WRITE        ACCESS:          0  HIT:          0  MISS:          0  iACCESS:          0  iHIT:          0  iMISS:          0  dACCESS:          0  dHIT:          0  dMISS:          0  itACCESS:          0  itHIT:          0  itMISS:          0  dtACCESS:          0  dtHIT:          0  dtMISS:          0
cpu0_L1I TRANSLATION  ACCESS:          0  HIT:          0  MISS:          0  iACCESS:          0  iHIT:          0  iMISS:          0  dACCESS:          0  dHIT:          0  dMISS:          0  itACCESS:          0  itHIT:          0  itMISS:          0  dtACCESS:          0  dtHIT:          0  dtMISS:          0
cpu0_L1I PREFETCH  REQUESTED:   27116390  ISSUED:   27113941  CROSSED:          0  USEFUL:    1933729  USELESS:     634872
cpu0_L1I AVERAGE iMISS LATENCY: 13.5014 cycles
cpu0_L1I AVERAGE dMISS LATENCY: 0 cycles
cpu0_L1I AVERAGE itMISS LATENCY: 0 cycles
cpu0_L1I AVERAGE dtMISS LATENCY: 0 cycles
cpu0_L1I PAGE CROSSINGS (TLB HIT):         0 
cpu0_L1I PAGE CROSSINGS (TLB MISS):         0 
cpu0_L1I AVERAGE MISS LATENCY: 13.5014 cycles
cpu0_ITLB TOTAL       ACCESS:   29021150  HIT:   27040581  MISS:    1980569  iACCESS:   29021150  iHIT:   27040581  iMISS:    1980569  dACCESS:          0  dHIT:          0  dMISS:          0  itACCESS:          0  itHIT:          0  itMISS:          0  dtACCESS:          0  dtHIT:          0  dtMISS:          0
cpu0_ITLB LOAD         ACCESS:   29021150  HIT:   27040581  MISS:    1980569  iACCESS:   29021150  iHIT:   27040581  iMISS:    1980569  dACCESS:          0  dHIT:          0  dMISS:          0  itACCESS:          0  itHIT:          0  itMISS:          0  dtACCESS:          0  dtHIT:          0  dtMISS:          0
cpu0_ITLB RFO          ACCESS:          0  HIT:          0  MISS:          0  iACCESS:          0  iHIT:          0  iMISS:          0  dACCESS:          0  dHIT:          0  dMISS:          0  itACCESS:          0  itHIT:          0  itMISS:          0  dtACCESS:          0  dtHIT:          0  dtMISS:          0
cpu0_ITLB PREFETCH     ACCESS:          0  HIT:          0  MISS:          0  iACCESS:          0  iHIT:          0  iMISS:          0  dACCESS:          0  dHIT:          0  dMISS:          0  itACCESS:          0  itHIT:          0  itMISS:          0  dtACCESS:          0  dtHIT:          0  dtMISS:          0
cpu0_ITLB WRITE        ACCESS:          0  HIT:          0  MISS:          0  iACCESS:          0  iHIT:          0  iMISS:          0  dACCESS:          0  dHIT:          0  dMISS:          0  itACCESS:          0  itHIT:          0  itMISS:          0  dtACCESS:          0  dtHIT:          0  dtMISS:          0
cpu0_ITLB TRANSLATION  ACCESS:          0  HIT:          0  MISS:          0  iACCESS:          0  iHIT:          0  iMISS:          0  dACCESS:          0  dHIT:          0  dMISS:          0  itACCESS:          0  itHIT:          0  itMISS:          0  dtACCESS:          0  dtHIT:          0  dtMISS:          0
cpu0_ITLB PREFETCH  REQUESTED:          0  ISSUED:          0  CROSSED:          0  USEFUL:     325637  USELESS:      62353
cpu0_ITLB AVERAGE iMISS LATENCY: 1.83008 cycles
cpu0_ITLB AVERAGE dMISS LATENCY: 0 cycles
cpu0_ITLB AVERAGE itMISS LATENCY: 0 cycles
cpu0_ITLB AVERAGE dtMISS LATENCY: 0 cycles
cpu0_ITLB PAGE CROSSINGS (TLB HIT):         0 
cpu0_ITLB PAGE CROSSINGS (TLB MISS):         0 
cpu0_ITLB AVERAGE MISS LATENCY: 1.83008 cycles
cpu0_DTLB TOTAL       ACCESS:   27727167  HIT:   25639741  MISS:    2087426  iACCESS:          0  iHIT:          0  iMISS:          0  dACCESS:   27727167  dHIT:   25639741  dMISS:    2087426  itACCESS:          0  itHIT:          0  itMISS:          0  dtACCESS:          0  dtHIT:          0  dtMISS:          0
cpu0_DTLB LOAD         ACCESS:   27727167  HIT:   25639741  MISS:    2087426  iACCESS:          0  iHIT:          0  iMISS:          0  dACCESS:   27727167  dHIT:   25639741  dMISS:    2087426  itACCESS:          0  itHIT:          0  itMISS:          0  dtACCESS:          0  dtHIT:          0  dtMISS:          0
cpu0_DTLB RFO          ACCESS:          0  HIT:          0  MISS:          0  iACCESS:          0  iHIT:          0  iMISS:          0  dACCESS:          0  dHIT:          0  dMISS:          0  itACCESS:          0  itHIT:          0  itMISS:          0  dtACCESS:          0  dtHIT:          0  dtMISS:          0
cpu0_DTLB PREFETCH     ACCESS:          0  HIT:          0  MISS:          0  iACCESS:          0  iHIT:          0  iMISS:          0  dACCESS:          0  dHIT:          0  dMISS:          0  itACCESS:          0  itHIT:          0  itMISS:          0  dtACCESS:          0  dtHIT:          0  dtMISS:          0
cpu0_DTLB WRITE        ACCESS:          0  HIT:          0  MISS:          0  iACCESS:          0  iHIT:          0  iMISS:          0  dACCESS:          0  dHIT:          0  dMISS:          0  itACCESS:          0  itHIT:          0  itMISS:          0  dtACCESS:          0  dtHIT:          0  dtMISS:          0
cpu0_DTLB TRANSLATION  ACCESS:          0  HIT:          0  MISS:          0  iACCESS:          0  iHIT:          0  iMISS:          0  dACCESS:          0  dHIT:          0  dMISS:          0  itACCESS:          0  itHIT:          0  itMISS:          0  dtACCESS:          0  dtHIT:          0  dtMISS:          0
cpu0_DTLB PREFETCH  REQUESTED:          0  ISSUED:          0  CROSSED:          0  USEFUL:          0  USELESS:          0
cpu0_DTLB AVERAGE iMISS LATENCY: 0 cycles
cpu0_DTLB AVERAGE dMISS LATENCY: 9.55096 cycles
cpu0_DTLB AVERAGE itMISS LATENCY: 0 cycles
cpu0_DTLB AVERAGE dtMISS LATENCY: 0 cycles
cpu0_DTLB PAGE CROSSINGS (TLB HIT):         0 
cpu0_DTLB PAGE CROSSINGS (TLB MISS):         0 
cpu0_DTLB AVERAGE MISS LATENCY: 9.55096 cycles
cpu0_STLB TOTAL       ACCESS:    1626750  HIT:    1494939  MISS:     131811  iACCESS:     388022  iHIT:     382186  iMISS:       5836  dACCESS:    1238728  dHIT:    1112753  dMISS:     125975  itACCESS:          0  itHIT:          0  itMISS:          0  dtACCESS:          0  dtHIT:          0  dtMISS:          0
cpu0_STLB LOAD         ACCESS:    1626750  HIT:    1494939  MISS:     131811  iACCESS:     388022  iHIT:     382186  iMISS:       5836  dACCESS:    1238728  dHIT:    1112753  dMISS:     125975  itACCESS:          0  itHIT:          0  itMISS:          0  dtACCESS:          0  dtHIT:          0  dtMISS:          0
cpu0_STLB RFO          ACCESS:          0  HIT:          0  MISS:          0  iACCESS:          0  iHIT:          0  iMISS:          0  dACCESS:          0  dHIT:          0  dMISS:          0  itACCESS:          0  itHIT:          0  itMISS:          0  dtACCESS:          0  dtHIT:          0  dtMISS:          0
cpu0_STLB PREFETCH     ACCESS:          0  HIT:          0  MISS:          0  iACCESS:          0  iHIT:          0  iMISS:          0  dACCESS:          0  dHIT:          0  dMISS:          0  itACCESS:          0  itHIT:          0  itMISS:          0  dtACCESS:          0  dtHIT:          0  dtMISS:          0
cpu0_STLB WRITE        ACCESS:          0  HIT:          0  MISS:          0  iACCESS:          0  iHIT:          0  iMISS:          0  dACCESS:          0  dHIT:          0  dMISS:          0  itACCESS:          0  itHIT:          0  itMISS:          0  dtACCESS:          0  dtHIT:          0  dtMISS:          0
cpu0_STLB TRANSLATION  ACCESS:          0  HIT:          0  MISS:          0  iACCESS:          0  iHIT:          0  iMISS:          0  dACCESS:          0  dHIT:          0  dMISS:          0  itACCESS:          0  itHIT:          0  itMISS:          0  dtACCESS:          0  dtHIT:          0  dtMISS:          0
cpu0_STLB PREFETCH  REQUESTED:          0  ISSUED:          0  CROSSED:          0  USEFUL:          0  USELESS:          0
cpu0_STLB AVERAGE iMISS LATENCY: 4.70007 cycles
cpu0_STLB AVERAGE dMISS LATENCY: 76.2804 cycles
cpu0_STLB AVERAGE itMISS LATENCY: 0 cycles
cpu0_STLB AVERAGE dtMISS LATENCY: 0 cycles
cpu0_STLB PAGE CROSSINGS (TLB HIT):         0 
cpu0_STLB PAGE CROSSINGS (TLB MISS):         0 
cpu0_STLB AVERAGE MISS LATENCY: 80.9805 cycles
cpu0_L1D TOTAL       ACCESS:   41537633  HIT:   37973050  MISS:    3564583  iACCESS:          0  iHIT:          0  iMISS:          0  dACCESS:   41335724  dHIT:   37961137  dMISS:    3374587  itACCESS:       6998  itHIT:        676  itMISS:       6322  dtACCESS:     194911  dtHIT:      11237  dtMISS:     183674
cpu0_L1D LOAD         ACCESS:   18959825  HIT:   17430460  MISS:    1529365  iACCESS:          0  iHIT:          0  iMISS:          0  dACCESS:   18959825  dHIT:   17430460  dMISS:    1529365  itACCESS:          0  itHIT:          0  itMISS:          0  dtACCESS:          0  dtHIT:          0  dtMISS:          0
cpu0_L1D RFO          ACCESS:          0  HIT:          0  MISS:          0  iACCESS:          0  iHIT:          0  iMISS:          0  dACCESS:          0  dHIT:          0  dMISS:          0  itACCESS:          0  itHIT:          0  itMISS:          0  dtACCESS:          0  dtHIT:          0  dtMISS:          0
cpu0_L1D PREFETCH     ACCESS:   12238159  HIT:   10843260  MISS:    1394899  iACCESS:          0  iHIT:          0  iMISS:          0  dACCESS:   12238159  dHIT:   10843260  dMISS:    1394899  itACCESS:          0  itHIT:          0  itMISS:          0  dtACCESS:          0  dtHIT:          0  dtMISS:          0
cpu0_L1D WRITE        ACCESS:   10137740  HIT:    9687417  MISS:     450323  iACCESS:          0  iHIT:          0  iMISS:          0  dACCESS:   10137740  dHIT:    9687417  dMISS:     450323  itACCESS:          0  itHIT:          0  itMISS:          0  dtACCESS:          0  dtHIT:          0  dtMISS:          0
cpu0_L1D TRANSLATION  ACCESS:     201909  HIT:      11913  MISS:     189996  iACCESS:          0  iHIT:          0  iMISS:          0  dACCESS:          0  dHIT:          0  dMISS:          0  itACCESS:       6998  itHIT:        676  itMISS:       6322  dtACCESS:     194911  dtHIT:      11237  dtMISS:     183674
cpu0_L1D PREFETCH  REQUESTED:   18959825  ISSUED:   17076127  CROSSED:          0  USEFUL:     307811  USELESS:     703191
cpu0_L1D AVERAGE iMISS LATENCY: 0 cycles
cpu0_L1D AVERAGE dMISS LATENCY: 34.826 cycles
cpu0_L1D AVERAGE itMISS LATENCY: 0.154502 cycles
cpu0_L1D AVERAGE dtMISS LATENCY: 2.11493 cycles
cpu0_L1D PAGE CROSSINGS (TLB HIT):         0 
cpu0_L1D PAGE CROSSINGS (TLB MISS):         0 
cpu0_L1D AVERAGE MISS LATENCY: 37.0954 cycles
cpu0_L2C TOTAL       ACCESS:    6985364  HIT:    1192394  MISS:    5792970  iACCESS:    3323364  iHIT:     689570  iMISS:    2633794  dACCESS:    3487217  dHIT:     374564  dMISS:    3112653  itACCESS:       6322  itHIT:       2288  itMISS:       4034  dtACCESS:     168461  dtHIT:     125972  dtMISS:      42489
cpu0_L2C LOAD         ACCESS:    1729759  HIT:     137984  MISS:    1591775  iACCESS:     793841  iHIT:      96875  iMISS:     696966  dACCESS:     935918  dHIT:      41109  dMISS:     894809  itACCESS:          0  itHIT:          0  itMISS:          0  dtACCESS:          0  dtHIT:          0  dtMISS:          0
cpu0_L2C RFO          ACCESS:     155941  HIT:       6931  MISS:     149010  iACCESS:          0  iHIT:          0  iMISS:          0  dACCESS:     155941  dHIT:       6931  dMISS:     149010  itACCESS:          0  itHIT:          0  itMISS:          0  dtACCESS:          0  dtHIT:          0  dtMISS:          0
cpu0_L2C PREFETCH     ACCESS:    4640990  HIT:     863563  MISS:    3777427  iACCESS:    2529523  iHIT:     592695  iMISS:    1936828  dACCESS:    2111467  dHIT:     270868  dMISS:    1840599  itACCESS:          0  itHIT:          0  itMISS:          0  dtACCESS:          0  dtHIT:          0  dtMISS:          0
cpu0_L2C WRITE        ACCESS:     283891  HIT:      55656  MISS:     228235  iACCESS:          0  iHIT:          0  iMISS:          0  dACCESS:     283891  dHIT:      55656  dMISS:     228235  itACCESS:          0  itHIT:          0  itMISS:          0  dtACCESS:          0  dtHIT:          0  dtMISS:          0
cpu0_L2C TRANSLATION  ACCESS:     174783  HIT:     128260  MISS:      46523  iACCESS:          0  iHIT:          0  iMISS:          0  dACCESS:          0  dHIT:          0  dMISS:          0  itACCESS:       6322  itHIT:       2288  itMISS:       4034  dtACCESS:     168461  dtHIT:     125972  dtMISS:      42489
cpu0_L2C PREFETCH  REQUESTED:    1387286  ISSUED:    1387286  CROSSED:          0  USEFUL:     418937  USELESS:     394457
cpu0_L2C AVERAGE iMISS LATENCY: 14.6804 cycles
cpu0_L2C AVERAGE dMISS LATENCY: 24.5428 cycles
cpu0_L2C AVERAGE itMISS LATENCY: 0.0845268 cycles
cpu0_L2C AVERAGE dtMISS LATENCY: 1.03086 cycles
cpu0_L2C PAGE CROSSINGS (TLB HIT):         0 
cpu0_L2C PAGE CROSSINGS (TLB MISS):         0 
cpu0_L2C AVERAGE MISS LATENCY: 40.3386 cycles
LLC TOTAL       ACCESS:    5715663  HIT:    4908799  MISS:     806864  iACCESS:    2577625  iHIT:    2334637  iMISS:     242988  dACCESS:    3091515  dHIT:    2558865  dMISS:     532650  itACCESS:       4034  itHIT:       1686  itMISS:       2348  dtACCESS:      42489  dtHIT:      13611  dtMISS:      28878
LLC LOAD         ACCESS:    1589852  HIT:    1401692  MISS:     188160  iACCESS:     695364  iHIT:     642865  iMISS:      52499  dACCESS:     894488  dHIT:     758827  dMISS:     135661  itACCESS:          0  itHIT:          0  itMISS:          0  dtACCESS:          0  dtHIT:          0  dtMISS:          0
LLC RFO          ACCESS:     148971  HIT:     106901  MISS:      42070  iACCESS:          0  iHIT:          0  iMISS:          0  dACCESS:     148971  dHIT:     106901  dMISS:      42070  itACCESS:          0  itHIT:          0  itMISS:          0  dtACCESS:          0  dtHIT:          0  dtMISS:          0
LLC PREFETCH     ACCESS:    3670835  HIT:    3125427  MISS:     545408  iACCESS:    1882261  iHIT:    1691772  iMISS:     190489  dACCESS:    1788574  dHIT:    1433655  dMISS:     354919  itACCESS:          0  itHIT:          0  itMISS:          0  dtACCESS:          0  dtHIT:          0  dtMISS:          0
LLC WRITE        ACCESS:     259482  HIT:     259482  MISS:          0  iACCESS:          0  iHIT:          0  iMISS:          0  dACCESS:     259482  dHIT:     259482  dMISS:          0  itACCESS:          0  itHIT:          0  itMISS:          0  dtACCESS:          0  dtHIT:          0  dtMISS:          0
LLC TRANSLATION  ACCESS:      46523  HIT:      15297  MISS:      31226  iACCESS:          0  iHIT:          0  iMISS:          0  dACCESS:          0  dHIT:          0  dMISS:          0  itACCESS:       4034  itHIT:       1686  itMISS:       2348  dtACCESS:      42489  dtHIT:      13611  dtMISS:      28878
LLC PREFETCH  REQUESTED:          0  ISSUED:          0  CROSSED:          0  USEFUL:          0  USELESS:          0
LLC AVERAGE iMISS LATENCY: 43.7671 cycles
LLC AVERAGE dMISS LATENCY: 108.322 cycles
LLC AVERAGE itMISS LATENCY: 0.509208 cycles
LLC AVERAGE dtMISS LATENCY: 6.36767 cycles
LLC PAGE CROSSINGS (TLB HIT):         0 
LLC PAGE CROSSINGS (TLB MISS):         0 
LLC AVERAGE MISS LATENCY: 158.966 cycles

PageTableWalker TOTAL       ACCESS:      66877  
PageTableWalker AVERAGE LATENCY: 4.65684 cycles
PageTableWalker TOTAL LATENCY: 311435 cycles

DRAM Statistics
Channel 0
 RQ ROW_BUFFER_HIT:     230430
  ROW_BUFFER_MISS:     576389
 AVG DBUS CONGESTED CYCLE:    3.63015
 WQ ROW_BUFFER_HIT:      21218
  ROW_BUFFER_MISS:      30183  FULL:          0

