last_page:0x200000000000000
VMEM_RES_CAP:0x100000
PAGE_SIZE:4096
LOG2_PAGE_SIZE:12
LOG2_PAGE_TABLE_SIZE:9
page_table_levels:5
WARNING: physical memory size is smaller than virtual memory size
FDiP enabled with aggresivity 16

*** ChampSim Multicore Out-of-Order Simulator ***

Warmup Instructions: 50000000
Simulation Instructions: 100000000
Number of CPUs: 1
Small page size: 4096
Large page size: 2097152

CPU 0 Bimodal branch predictor
Basic BTB sets: 1024 ways: 8 indirect buffer size: 4096 RAS size: 64
Instruction page size distrubution: 0
Loading instruction page size distribution from /home/bsc/bsc018186/scratch/itp_asplos25_AE/dump/srv623_ap.pdst
Data page size distrubution: 0
Loading data page size distribution from /home/bsc/bsc018186/scratch/itp_asplos25_AE/dump/srv623_ap.pdst
cpu0_L2C IP-based stride prefetcher
cpu0_L2C is using PTP replacement policy:
	TLB_STRESS_THRESHOLD:0
	PTE_EVICTION_RATIO:0
cpu0_L1D next line prefetcher
CHiRPing...
cpu0_L1I next line prefetcher
Off-chip DRAM Size: 4 GiB Channels: 1 Width: 64-bit Data Rate: 3200 MT/s
Heartbeat CPU 0 instructions: 10000002 cycles: 2500339 heartbeat IPC: 3.99946 cumulative IPC: 3.99946 (Simulation time: 0 hr 0 min 39 sec) 
Heartbeat CPU 0 instructions: 20000001 cycles: 5000481 heartbeat IPC: 3.99978 cumulative IPC: 3.99962 (Simulation time: 0 hr 1 min 19 sec) 
Heartbeat CPU 0 instructions: 30000002 cycles: 7500654 heartbeat IPC: 3.99973 cumulative IPC: 3.99966 (Simulation time: 0 hr 2 min 0 sec) 
Heartbeat CPU 0 instructions: 40000001 cycles: 10000960 heartbeat IPC: 3.99952 cumulative IPC: 3.99962 (Simulation time: 0 hr 2 min 41 sec) 
Heartbeat CPU 0 instructions: 50000000 cycles: 12501275 heartbeat IPC: 3.9995 cumulative IPC: 3.9996 (Simulation time: 0 hr 3 min 22 sec) 
Warmup finished CPU 0 instructions: 50000000 cycles: 12501276 cumulative IPC: 3.9996 (Simulation time: 0 hr 3 min 22 sec) 

Warmup complete CPU 0 instructions: 50000000 cycles: 12501276 (Simulation time: 0 hr 3 min 22 sec) 

Heartbeat CPU 0 instructions: 60000000 cycles: 26541729 heartbeat IPC: 0.712228 cumulative IPC: 0.712228 (Simulation time: 0 hr 4 min 27 sec) 
Heartbeat CPU 0 instructions: 70000000 cycles: 40986794 heartbeat IPC: 0.692278 cumulative IPC: 0.702112 (Simulation time: 0 hr 5 min 32 sec) 
Heartbeat CPU 0 instructions: 80000000 cycles: 55764230 heartbeat IPC: 0.676708 cumulative IPC: 0.693434 (Simulation time: 0 hr 6 min 38 sec) 
Heartbeat CPU 0 instructions: 90000000 cycles: 69169436 heartbeat IPC: 0.745979 cumulative IPC: 0.705864 (Simulation time: 0 hr 7 min 41 sec) 
Heartbeat CPU 0 instructions: 100000001 cycles: 82958157 heartbeat IPC: 0.725231 cumulative IPC: 0.709654 (Simulation time: 0 hr 8 min 45 sec) 
*** Reached end of trace: /gpfs/projects/bsc18/MN4/bsc18/romol/ChampSim/traces/qualcomm_srv/srv623_ap.champsimtrace.xz
Heartbeat CPU 0 instructions: 110000003 cycles: 96827974 heartbeat IPC: 0.720991 cumulative IPC: 0.711519 (Simulation time: 0 hr 9 min 50 sec) 
Heartbeat CPU 0 instructions: 120000002 cycles: 111289458 heartbeat IPC: 0.691492 cumulative IPC: 0.708587 (Simulation time: 0 hr 10 min 56 sec) 
Heartbeat CPU 0 instructions: 130000002 cycles: 124809115 heartbeat IPC: 0.739664 cumulative IPC: 0.712328 (Simulation time: 0 hr 12 min 1 sec) 
Heartbeat CPU 0 instructions: 140000000 cycles: 139390187 heartbeat IPC: 0.685821 cumulative IPC: 0.709282 (Simulation time: 0 hr 13 min 7 sec) 
Heartbeat CPU 0 instructions: 150000000 cycles: 153270937 heartbeat IPC: 0.720423 cumulative IPC: 0.710381 (Simulation time: 0 hr 14 min 12 sec) 
Simulation finished CPU 0 instructions: 100000000 cycles: 140769662 cumulative IPC: 0.710381 (Simulation time: 0 hr 14 min 12 sec) 

Simulation complete CPU 0 instructions: 100000000 cycles: 140769662 (Simulation time: 0 hr 14 min 12 sec) 


ChampSim completed all CPUs

Saving instructions large page distribution to /home/bsc/bsc018186/scratch/itp_asplos25_AE/dump/srv623_ap.pdst...
Saving data large page distribution to /home/bsc/bsc018186/scratch/itp_asplos25_AE/dump/srv623_ap.pdst...
=== Simulation ===
CPU 0 runs /gpfs/projects/bsc18/MN4/bsc18/romol/ChampSim/traces/qualcomm_srv/srv623_ap.champsimtrace.xz

Region of Interest Statistics

CPU 0 cumulative IPC: 0.710381 instructions: 100000000 cycles: 140769662
CPU 0 Branch Prediction Accuracy: 83.4241% MPKI: 29.6363 Average ROB Occupancy at Mispredict: 12.3709
Branch type MPKI
BRANCH_DIRECT_JUMP: 1.01919
BRANCH_INDIRECT: 15.269
BRANCH_CONDITIONAL: 9.6814
BRANCH_DIRECT_CALL: 1.8327
BRANCH_INDIRECT_CALL: 0.503631
BRANCH_RETURN: 1.33037

Instructions large pages: 0
Instructions small pages: 11492
Large page distribution for instructions: 0%

Data large pages: 0
Data small pages: 10479
Large page distribution for data: 0%

cpu0_L1I TOTAL       ACCESS:   35202390  HIT:   26781790  MISS:    8420600  iACCESS:   35202390  iHIT:   26781790  iMISS:    8420600  dACCESS:          0  dHIT:          0  dMISS:          0  itACCESS:          0  itHIT:          0  itMISS:          0  dtACCESS:          0  dtHIT:          0  dtMISS:          0
cpu0_L1I LOAD         ACCESS:   10329493  HIT:    7963385  MISS:    2366108  iACCESS:   10329493  iHIT:    7963385  iMISS:    2366108  dACCESS:          0  dHIT:          0  dMISS:          0  itACCESS:          0  itHIT:          0  itMISS:          0  dtACCESS:          0  dtHIT:          0  dtMISS:          0
cpu0_L1I RFO          ACCESS:          0  HIT:          0  MISS:          0  iACCESS:          0  iHIT:          0  iMISS:          0  dACCESS:          0  dHIT:          0  dMISS:          0  itACCESS:          0  itHIT:          0  itMISS:          0  dtACCESS:          0  dtHIT:          0  dtMISS:          0
cpu0_L1I PREFETCH     ACCESS:   24872897  HIT:   18818405  MISS:    6054492  iACCESS:   24872897  iHIT:   18818405  iMISS:    6054492  dACCESS:          0  dHIT:          0  dMISS:          0  itACCESS:          0  itHIT:          0  itMISS:          0  dtACCESS:          0  dtHIT:          0  dtMISS:          0
cpu0_L1I WRITE        ACCESS:          0  HIT:          0  MISS:          0  iACCESS:          0  iHIT:          0  iMISS:          0  dACCESS:          0  dHIT:          0  dMISS:          0  itACCESS:          0  itHIT:          0  itMISS:          0  dtACCESS:          0  dtHIT:          0  dtMISS:          0
cpu0_L1I TRANSLATION  ACCESS:          0  HIT:          0  MISS:          0  iACCESS:          0  iHIT:          0  iMISS:          0  dACCESS:          0  dHIT:          0  dMISS:          0  itACCESS:          0  itHIT:          0  itMISS:          0  dtACCESS:          0  dtHIT:          0  dtMISS:          0
cpu0_L1I PREFETCH  REQUESTED:   27198550  ISSUED:   27196607  CROSSED:          0  USEFUL:    1893384  USELESS:     625125
cpu0_L1I AVERAGE iMISS LATENCY: 13.902 cycles
cpu0_L1I AVERAGE dMISS LATENCY: 0 cycles
cpu0_L1I AVERAGE itMISS LATENCY: 0 cycles
cpu0_L1I AVERAGE dtMISS LATENCY: 0 cycles
cpu0_L1I PAGE CROSSINGS (TLB HIT):         0 
cpu0_L1I PAGE CROSSINGS (TLB MISS):         0 
cpu0_L1I AVERAGE MISS LATENCY: 13.902 cycles
cpu0_ITLB TOTAL       ACCESS:   29096420  HIT:   27126986  MISS:    1969434  iACCESS:   29096420  iHIT:   27126986  iMISS:    1969434  dACCESS:          0  dHIT:          0  dMISS:          0  itACCESS:          0  itHIT:          0  itMISS:          0  dtACCESS:          0  dtHIT:          0  dtMISS:          0
cpu0_ITLB LOAD         ACCESS:   29096420  HIT:   27126986  MISS:    1969434  iACCESS:   29096420  iHIT:   27126986  iMISS:    1969434  dACCESS:          0  dHIT:          0  dMISS:          0  itACCESS:          0  itHIT:          0  itMISS:          0  dtACCESS:          0  dtHIT:          0  dtMISS:          0
cpu0_ITLB RFO          ACCESS:          0  HIT:          0  MISS:          0  iACCESS:          0  iHIT:          0  iMISS:          0  dACCESS:          0  dHIT:          0  dMISS:          0  itACCESS:          0  itHIT:          0  itMISS:          0  dtACCESS:          0  dtHIT:          0  dtMISS:          0
cpu0_ITLB PREFETCH     ACCESS:          0  HIT:          0  MISS:          0  iACCESS:          0  iHIT:          0  iMISS:          0  dACCESS:          0  dHIT:          0  dMISS:          0  itACCESS:          0  itHIT:          0  itMISS:          0  dtACCESS:          0  dtHIT:          0  dtMISS:          0
cpu0_ITLB WRITE        ACCESS:          0  HIT:          0  MISS:          0  iACCESS:          0  iHIT:          0  iMISS:          0  dACCESS:          0  dHIT:          0  dMISS:          0  itACCESS:          0  itHIT:          0  itMISS:          0  dtACCESS:          0  dtHIT:          0  dtMISS:          0
cpu0_ITLB TRANSLATION  ACCESS:          0  HIT:          0  MISS:          0  iACCESS:          0  iHIT:          0  iMISS:          0  dACCESS:          0  dHIT:          0  dMISS:          0  itACCESS:          0  itHIT:          0  itMISS:          0  dtACCESS:          0  dtHIT:          0  dtMISS:          0
cpu0_ITLB PREFETCH  REQUESTED:          0  ISSUED:          0  CROSSED:          0  USEFUL:     321056  USELESS:      66672
cpu0_ITLB AVERAGE iMISS LATENCY: 2.79024 cycles
cpu0_ITLB AVERAGE dMISS LATENCY: 0 cycles
cpu0_ITLB AVERAGE itMISS LATENCY: 0 cycles
cpu0_ITLB AVERAGE dtMISS LATENCY: 0 cycles
cpu0_ITLB PAGE CROSSINGS (TLB HIT):         0 
cpu0_ITLB PAGE CROSSINGS (TLB MISS):         0 
cpu0_ITLB AVERAGE MISS LATENCY: 2.79024 cycles
cpu0_DTLB TOTAL       ACCESS:   27727009  HIT:   25673601  MISS:    2053408  iACCESS:          0  iHIT:          0  iMISS:          0  dACCESS:   27727009  dHIT:   25673601  dMISS:    2053408  itACCESS:          0  itHIT:          0  itMISS:          0  dtACCESS:          0  dtHIT:          0  dtMISS:          0
cpu0_DTLB LOAD         ACCESS:   27727009  HIT:   25673601  MISS:    2053408  iACCESS:          0  iHIT:          0  iMISS:          0  dACCESS:   27727009  dHIT:   25673601  dMISS:    2053408  itACCESS:          0  itHIT:          0  itMISS:          0  dtACCESS:          0  dtHIT:          0  dtMISS:          0
cpu0_DTLB RFO          ACCESS:          0  HIT:          0  MISS:          0  iACCESS:          0  iHIT:          0  iMISS:          0  dACCESS:          0  dHIT:          0  dMISS:          0  itACCESS:          0  itHIT:          0  itMISS:          0  dtACCESS:          0  dtHIT:          0  dtMISS:          0
cpu0_DTLB PREFETCH     ACCESS:          0  HIT:          0  MISS:          0  iACCESS:          0  iHIT:          0  iMISS:          0  dACCESS:          0  dHIT:          0  dMISS:          0  itACCESS:          0  itHIT:          0  itMISS:          0  dtACCESS:          0  dtHIT:          0  dtMISS:          0
cpu0_DTLB WRITE        ACCESS:          0  HIT:          0  MISS:          0  iACCESS:          0  iHIT:          0  iMISS:          0  dACCESS:          0  dHIT:          0  dMISS:          0  itACCESS:          0  itHIT:          0  itMISS:          0  dtACCESS:          0  dtHIT:          0  dtMISS:          0
cpu0_DTLB TRANSLATION  ACCESS:          0  HIT:          0  MISS:          0  iACCESS:          0  iHIT:          0  iMISS:          0  dACCESS:          0  dHIT:          0  dMISS:          0  itACCESS:          0  itHIT:          0  itMISS:          0  dtACCESS:          0  dtHIT:          0  dtMISS:          0
cpu0_DTLB PREFETCH  REQUESTED:          0  ISSUED:          0  CROSSED:          0  USEFUL:          0  USELESS:          0
cpu0_DTLB AVERAGE iMISS LATENCY: 0 cycles
cpu0_DTLB AVERAGE dMISS LATENCY: 8.88795 cycles
cpu0_DTLB AVERAGE itMISS LATENCY: 0 cycles
cpu0_DTLB AVERAGE dtMISS LATENCY: 0 cycles
cpu0_DTLB PAGE CROSSINGS (TLB HIT):         0 
cpu0_DTLB PAGE CROSSINGS (TLB MISS):         0 
cpu0_DTLB AVERAGE MISS LATENCY: 8.88795 cycles
cpu0_STLB TOTAL       ACCESS:    1613851  HIT:    1440686  MISS:     173165  iACCESS:     387750  iHIT:     325053  iMISS:      62697  dACCESS:    1226101  dHIT:    1115633  dMISS:     110468  itACCESS:          0  itHIT:          0  itMISS:          0  dtACCESS:          0  dtHIT:          0  dtMISS:          0
cpu0_STLB LOAD         ACCESS:    1613851  HIT:    1440686  MISS:     173165  iACCESS:     387750  iHIT:     325053  iMISS:      62697  dACCESS:    1226101  dHIT:    1115633  dMISS:     110468  itACCESS:          0  itHIT:          0  itMISS:          0  dtACCESS:          0  dtHIT:          0  dtMISS:          0
cpu0_STLB RFO          ACCESS:          0  HIT:          0  MISS:          0  iACCESS:          0  iHIT:          0  iMISS:          0  dACCESS:          0  dHIT:          0  dMISS:          0  itACCESS:          0  itHIT:          0  itMISS:          0  dtACCESS:          0  dtHIT:          0  dtMISS:          0
cpu0_STLB PREFETCH     ACCESS:          0  HIT:          0  MISS:          0  iACCESS:          0  iHIT:          0  iMISS:          0  dACCESS:          0  dHIT:          0  dMISS:          0  itACCESS:          0  itHIT:          0  itMISS:          0  dtACCESS:          0  dtHIT:          0  dtMISS:          0
cpu0_STLB WRITE        ACCESS:          0  HIT:          0  MISS:          0  iACCESS:          0  iHIT:          0  iMISS:          0  dACCESS:          0  dHIT:          0  dMISS:          0  itACCESS:          0  itHIT:          0  itMISS:          0  dtACCESS:          0  dtHIT:          0  dtMISS:          0
cpu0_STLB TRANSLATION  ACCESS:          0  HIT:          0  MISS:          0  iACCESS:          0  iHIT:          0  iMISS:          0  dACCESS:          0  dHIT:          0  dMISS:          0  itACCESS:          0  itHIT:          0  itMISS:          0  dtACCESS:          0  dtHIT:          0  dtMISS:          0
cpu0_STLB PREFETCH  REQUESTED:          0  ISSUED:          0  CROSSED:          0  USEFUL:          0  USELESS:          0
cpu0_STLB AVERAGE iMISS LATENCY: 14.0285 cycles
cpu0_STLB AVERAGE dMISS LATENCY: 48.9666 cycles
cpu0_STLB AVERAGE itMISS LATENCY: 0 cycles
cpu0_STLB AVERAGE dtMISS LATENCY: 0 cycles
cpu0_STLB PAGE CROSSINGS (TLB HIT):         0 
cpu0_STLB PAGE CROSSINGS (TLB MISS):         0 
cpu0_STLB AVERAGE MISS LATENCY: 62.9951 cycles
cpu0_L1D TOTAL       ACCESS:   41555397  HIT:   38044573  MISS:    3510824  iACCESS:          0  iHIT:          0  iMISS:          0  dACCESS:   41321226  dHIT:   38023206  dMISS:    3298020  itACCESS:      68217  itHIT:       9958  itMISS:      58259  dtACCESS:     165954  dtHIT:      11409  dtMISS:     154545
cpu0_L1D LOAD         ACCESS:   18932218  HIT:   17437156  MISS:    1495062  iACCESS:          0  iHIT:          0  iMISS:          0  dACCESS:   18932218  dHIT:   17437156  dMISS:    1495062  itACCESS:          0  itHIT:          0  itMISS:          0  dtACCESS:          0  dtHIT:          0  dtMISS:          0
cpu0_L1D RFO          ACCESS:          0  HIT:          0  MISS:          0  iACCESS:          0  iHIT:          0  iMISS:          0  dACCESS:          0  dHIT:          0  dMISS:          0  itACCESS:          0  itHIT:          0  itMISS:          0  dtACCESS:          0  dtHIT:          0  dtMISS:          0
cpu0_L1D PREFETCH     ACCESS:   12201062  HIT:   10838819  MISS:    1362243  iACCESS:          0  iHIT:          0  iMISS:          0  dACCESS:   12201062  dHIT:   10838819  dMISS:    1362243  itACCESS:          0  itHIT:          0  itMISS:          0  dtACCESS:          0  dtHIT:          0  dtMISS:          0
cpu0_L1D WRITE        ACCESS:   10187946  HIT:    9747231  MISS:     440715  iACCESS:          0  iHIT:          0  iMISS:          0  dACCESS:   10187946  dHIT:    9747231  dMISS:     440715  itACCESS:          0  itHIT:          0  itMISS:          0  dtACCESS:          0  dtHIT:          0  dtMISS:          0
cpu0_L1D TRANSLATION  ACCESS:     234171  HIT:      21367  MISS:     212804  iACCESS:          0  iHIT:          0  iMISS:          0  dACCESS:          0  dHIT:          0  dMISS:          0  itACCESS:      68217  itHIT:       9958  itMISS:      58259  dtACCESS:     165954  dtHIT:      11409  dtMISS:     154545
cpu0_L1D PREFETCH  REQUESTED:   18932218  ISSUED:   17058978  CROSSED:          0  USEFUL:     304102  USELESS:     695357
cpu0_L1D AVERAGE iMISS LATENCY: 0 cycles
cpu0_L1D AVERAGE dMISS LATENCY: 34.9236 cycles
cpu0_L1D AVERAGE itMISS LATENCY: 0.538448 cycles
cpu0_L1D AVERAGE dtMISS LATENCY: 1.69106 cycles
cpu0_L1D PAGE CROSSINGS (TLB HIT):         0 
cpu0_L1D PAGE CROSSINGS (TLB MISS):         0 
cpu0_L1D AVERAGE MISS LATENCY: 37.1531 cycles
cpu0_L2C TOTAL       ACCESS:    6908981  HIT:    1210355  MISS:    5698626  iACCESS:    3269429  iHIT:     669490  iMISS:    2599939  dACCESS:    3435573  dHIT:     377130  dMISS:    3058443  itACCESS:      58259  itHIT:      47469  itMISS:      10790  dtACCESS:     145720  dtHIT:     116266  dtMISS:      29454
cpu0_L2C LOAD         ACCESS:    1707707  HIT:     139806  MISS:    1567901  iACCESS:     783673  iHIT:      97738  iMISS:     685935  dACCESS:     924034  dHIT:      42068  dMISS:     881966  itACCESS:          0  itHIT:          0  itMISS:          0  dtACCESS:          0  dtHIT:          0  dtMISS:          0
cpu0_L2C RFO          ACCESS:     156365  HIT:       8904  MISS:     147461  iACCESS:          0  iHIT:          0  iMISS:          0  dACCESS:     156365  dHIT:       8904  dMISS:     147461  itACCESS:          0  itHIT:          0  itMISS:          0  dtACCESS:          0  dtHIT:          0  dtMISS:          0
cpu0_L2C PREFETCH     ACCESS:    4558468  HIT:     840672  MISS:    3717796  iACCESS:    2485756  iHIT:     571752  iMISS:    1914004  dACCESS:    2072712  dHIT:     268920  dMISS:    1803792  itACCESS:          0  itHIT:          0  itMISS:          0  dtACCESS:          0  dtHIT:          0  dtMISS:          0
cpu0_L2C WRITE        ACCESS:     282462  HIT:      57238  MISS:     225224  iACCESS:          0  iHIT:          0  iMISS:          0  dACCESS:     282462  dHIT:      57238  dMISS:     225224  itACCESS:          0  itHIT:          0  itMISS:          0  dtACCESS:          0  dtHIT:          0  dtMISS:          0
cpu0_L2C TRANSLATION  ACCESS:     203979  HIT:     163735  MISS:      40244  iACCESS:          0  iHIT:          0  iMISS:          0  dACCESS:          0  dHIT:          0  dMISS:          0  itACCESS:      58259  itHIT:      47469  itMISS:      10790  dtACCESS:     145720  dtHIT:     116266  dtMISS:      29454
cpu0_L2C PREFETCH  REQUESTED:    1322648  ISSUED:    1322648  CROSSED:          0  USEFUL:     401161  USELESS:     383738
cpu0_L2C AVERAGE iMISS LATENCY: 15.3205 cycles
cpu0_L2C AVERAGE dMISS LATENCY: 24.7512 cycles
cpu0_L2C AVERAGE itMISS LATENCY: 0.23761 cycles
cpu0_L2C AVERAGE dtMISS LATENCY: 0.805274 cycles
cpu0_L2C PAGE CROSSINGS (TLB HIT):         0 
cpu0_L2C PAGE CROSSINGS (TLB MISS):         0 
cpu0_L2C AVERAGE MISS LATENCY: 41.1144 cycles
LLC TOTAL       ACCESS:    5619951  HIT:    4787176  MISS:     832775  iACCESS:    2546223  iHIT:    2284139  iMISS:     262084  dACCESS:    3033484  dHIT:    2492287  dMISS:     541197  itACCESS:      10790  itHIT:       4179  itMISS:       6611  dtACCESS:      29454  dtHIT:       6571  dtMISS:      22883
LLC LOAD         ACCESS:    1566031  HIT:    1371567  MISS:     194464  iACCESS:     684447  iHIT:     628573  iMISS:      55874  dACCESS:     881584  dHIT:     742994  dMISS:     138590  itACCESS:          0  itHIT:          0  itMISS:          0  dtACCESS:          0  dtHIT:          0  dtMISS:          0
LLC RFO          ACCESS:     147414  HIT:     107113  MISS:      40301  iACCESS:          0  iHIT:          0  iMISS:          0  dACCESS:     147414  dHIT:     107113  dMISS:      40301  itACCESS:          0  itHIT:          0  itMISS:          0  dtACCESS:          0  dtHIT:          0  dtMISS:          0
LLC PREFETCH     ACCESS:    3611124  HIT:    3042608  MISS:     568516  iACCESS:    1861776  iHIT:    1655566  iMISS:     206210  dACCESS:    1749348  dHIT:    1387042  dMISS:     362306  itACCESS:          0  itHIT:          0  itMISS:          0  dtACCESS:          0  dtHIT:          0  dtMISS:          0
LLC WRITE        ACCESS:     255138  HIT:     255138  MISS:          0  iACCESS:          0  iHIT:          0  iMISS:          0  dACCESS:     255138  dHIT:     255138  dMISS:          0  itACCESS:          0  itHIT:          0  itMISS:          0  dtACCESS:          0  dtHIT:          0  dtMISS:          0
LLC TRANSLATION  ACCESS:      40244  HIT:      10750  MISS:      29494  iACCESS:          0  iHIT:          0  iMISS:          0  dACCESS:          0  dHIT:          0  dMISS:          0  itACCESS:      10790  itHIT:       4179  itMISS:       6611  dtACCESS:      29454  dtHIT:       6571  dtMISS:      22883
LLC PREFETCH  REQUESTED:          0  ISSUED:          0  CROSSED:          0  USEFUL:          0  USELESS:          0
LLC AVERAGE iMISS LATENCY: 45.7995 cycles
LLC AVERAGE dMISS LATENCY: 105.002 cycles
LLC AVERAGE itMISS LATENCY: 1.37229 cycles
LLC AVERAGE dtMISS LATENCY: 4.81398 cycles
LLC PAGE CROSSINGS (TLB HIT):         0 
LLC PAGE CROSSINGS (TLB MISS):         0 
LLC AVERAGE MISS LATENCY: 156.988 cycles

PageTableWalker TOTAL       ACCESS:      88881  
PageTableWalker AVERAGE LATENCY: 4.16132 cycles
PageTableWalker TOTAL LATENCY: 369862 cycles

DRAM Statistics
Channel 0
 RQ ROW_BUFFER_HIT:     240791
  ROW_BUFFER_MISS:     591885
 AVG DBUS CONGESTED CYCLE:    3.62846
 WQ ROW_BUFFER_HIT:      21785
  ROW_BUFFER_MISS:      30056  FULL:          0

