last_page:0x200000000000000
VMEM_RES_CAP:0x100000
PAGE_SIZE:4096
LOG2_PAGE_SIZE:12
LOG2_PAGE_TABLE_SIZE:9
page_table_levels:5
WARNING: physical memory size is smaller than virtual memory size
FDiP enabled with aggresivity 16

*** ChampSim Multicore Out-of-Order Simulator ***

Warmup Instructions: 50000000
Simulation Instructions: 100000000
Number of CPUs: 1
Small page size: 4096
Large page size: 2097152

CPU 0 Bimodal branch predictor
Basic BTB sets: 1024 ways: 8 indirect buffer size: 4096 RAS size: 64
Instruction page size distrubution: 0
Loading instruction page size distribution from /home/bsc/bsc018186/scratch/itp_asplos25_AE/dump/srv61_ap.pdst
Data page size distrubution: 0
Loading data page size distribution from /home/bsc/bsc018186/scratch/itp_asplos25_AE/dump/srv61_ap.pdst
cpu0_L2C IP-based stride prefetcher
cpu0_L1D next line prefetcher
cpu0_L1I next line prefetcher
Off-chip DRAM Size: 4 GiB Channels: 1 Width: 64-bit Data Rate: 3200 MT/s
Heartbeat CPU 0 instructions: 10000000 cycles: 2500216 heartbeat IPC: 3.99966 cumulative IPC: 3.99966 (Simulation time: 0 hr 0 min 34 sec) 
Heartbeat CPU 0 instructions: 20000001 cycles: 5000282 heartbeat IPC: 3.9999 cumulative IPC: 3.99978 (Simulation time: 0 hr 1 min 11 sec) 
Heartbeat CPU 0 instructions: 30000001 cycles: 7500286 heartbeat IPC: 4 cumulative IPC: 3.99985 (Simulation time: 0 hr 1 min 48 sec) 
Heartbeat CPU 0 instructions: 40000002 cycles: 10000434 heartbeat IPC: 3.99977 cumulative IPC: 3.99983 (Simulation time: 0 hr 2 min 25 sec) 
Heartbeat CPU 0 instructions: 50000000 cycles: 12500451 heartbeat IPC: 3.99998 cumulative IPC: 3.99986 (Simulation time: 0 hr 3 min 2 sec) 
Warmup finished CPU 0 instructions: 50000000 cycles: 12500452 cumulative IPC: 3.99986 (Simulation time: 0 hr 3 min 2 sec) 

Warmup complete CPU 0 instructions: 50000000 cycles: 12500452 (Simulation time: 0 hr 3 min 2 sec) 

Heartbeat CPU 0 instructions: 60000000 cycles: 33098723 heartbeat IPC: 0.485478 cumulative IPC: 0.485478 (Simulation time: 0 hr 4 min 9 sec) 
Heartbeat CPU 0 instructions: 70000002 cycles: 54010490 heartbeat IPC: 0.4782 cumulative IPC: 0.481812 (Simulation time: 0 hr 5 min 17 sec) 
Heartbeat CPU 0 instructions: 80000002 cycles: 74252720 heartbeat IPC: 0.494017 cumulative IPC: 0.485813 (Simulation time: 0 hr 6 min 24 sec) 
Heartbeat CPU 0 instructions: 90000000 cycles: 95124939 heartbeat IPC: 0.479106 cumulative IPC: 0.484118 (Simulation time: 0 hr 7 min 31 sec) 
Heartbeat CPU 0 instructions: 100000000 cycles: 115911784 heartbeat IPC: 0.481074 cumulative IPC: 0.483507 (Simulation time: 0 hr 8 min 39 sec) 
*** Reached end of trace: /gpfs/projects/bsc18/MN4/bsc18/romol/ChampSim/traces/qualcomm_srv/srv61_ap.champsimtrace.xz
Heartbeat CPU 0 instructions: 110000002 cycles: 136842038 heartbeat IPC: 0.477778 cumulative IPC: 0.482542 (Simulation time: 0 hr 9 min 47 sec) 
Heartbeat CPU 0 instructions: 120000000 cycles: 157782597 heartbeat IPC: 0.477543 cumulative IPC: 0.481822 (Simulation time: 0 hr 10 min 55 sec) 
Heartbeat CPU 0 instructions: 130000000 cycles: 177608304 heartbeat IPC: 0.504396 cumulative IPC: 0.484532 (Simulation time: 0 hr 12 min 2 sec) 
Heartbeat CPU 0 instructions: 140000004 cycles: 198459836 heartbeat IPC: 0.479582 cumulative IPC: 0.483977 (Simulation time: 0 hr 13 min 10 sec) 
Heartbeat CPU 0 instructions: 150000001 cycles: 218479546 heartbeat IPC: 0.499508 cumulative IPC: 0.485487 (Simulation time: 0 hr 14 min 16 sec) 
Simulation finished CPU 0 instructions: 100000001 cycles: 205979095 cumulative IPC: 0.485487 (Simulation time: 0 hr 14 min 16 sec) 

Simulation complete CPU 0 instructions: 100000001 cycles: 205979095 (Simulation time: 0 hr 14 min 16 sec) 


ChampSim completed all CPUs

Saving instructions large page distribution to /home/bsc/bsc018186/scratch/itp_asplos25_AE/dump/srv61_ap.pdst...
Saving data large page distribution to /home/bsc/bsc018186/scratch/itp_asplos25_AE/dump/srv61_ap.pdst...
=== Simulation ===
CPU 0 runs /gpfs/projects/bsc18/MN4/bsc18/romol/ChampSim/traces/qualcomm_srv/srv61_ap.champsimtrace.xz

Region of Interest Statistics

CPU 0 cumulative IPC: 0.485487 instructions: 100000001 cycles: 205979095
CPU 0 Branch Prediction Accuracy: 80.5502% MPKI: 35.0946 Average ROB Occupancy at Mispredict: 10.9069
Branch type MPKI
BRANCH_DIRECT_JUMP: 1.29426
BRANCH_INDIRECT: 17.5418
BRANCH_CONDITIONAL: 11.4374
BRANCH_DIRECT_CALL: 2.4312
BRANCH_INDIRECT_CALL: 0.68904
BRANCH_RETURN: 1.70091

Instructions large pages: 0
Instructions small pages: 5712
Large page distribution for instructions: 0%

Data large pages: 0
Data small pages: 4613
Large page distribution for data: 0%

cpu0_L1I TOTAL       ACCESS:   35224843  HIT:   27430495  MISS:    7794348  iACCESS:   35224843  iHIT:   27430495  iMISS:    7794348  dACCESS:          0  dHIT:          0  dMISS:          0  itACCESS:          0  itHIT:          0  itMISS:          0  dtACCESS:          0  dtHIT:          0  dtMISS:          0
cpu0_L1I LOAD         ACCESS:   10154081  HIT:    8011045  MISS:    2143036  iACCESS:   10154081  iHIT:    8011045  iMISS:    2143036  dACCESS:          0  dHIT:          0  dMISS:          0  itACCESS:          0  itHIT:          0  itMISS:          0  dtACCESS:          0  dtHIT:          0  dtMISS:          0
cpu0_L1I RFO          ACCESS:          0  HIT:          0  MISS:          0  iACCESS:          0  iHIT:          0  iMISS:          0  dACCESS:          0  dHIT:          0  dMISS:          0  itACCESS:          0  itHIT:          0  itMISS:          0  dtACCESS:          0  dtHIT:          0  dtMISS:          0
cpu0_L1I PREFETCH     ACCESS:   25070762  HIT:   19419450  MISS:    5651312  iACCESS:   25070762  iHIT:   19419450  iMISS:    5651312  dACCESS:          0  dHIT:          0  dMISS:          0  itACCESS:          0  itHIT:          0  itMISS:          0  dtACCESS:          0  dtHIT:          0  dtMISS:          0
cpu0_L1I WRITE        ACCESS:          0  HIT:          0  MISS:          0  iACCESS:          0  iHIT:          0  iMISS:          0  dACCESS:          0  dHIT:          0  dMISS:          0  itACCESS:          0  itHIT:          0  itMISS:          0  dtACCESS:          0  dtHIT:          0  dtMISS:          0
cpu0_L1I TRANSLATION  ACCESS:          0  HIT:          0  MISS:          0  iACCESS:          0  iHIT:          0  iMISS:          0  dACCESS:          0  dHIT:          0  dMISS:          0  itACCESS:          0  itHIT:          0  itMISS:          0  dtACCESS:          0  dtHIT:          0  dtMISS:          0
cpu0_L1I PREFETCH  REQUESTED:   27469181  ISSUED:   27469177  CROSSED:          0  USEFUL:    1951079  USELESS:     648311
cpu0_L1I AVERAGE iMISS LATENCY: 19.6951 cycles
cpu0_L1I AVERAGE dMISS LATENCY: 0 cycles
cpu0_L1I AVERAGE itMISS LATENCY: 0 cycles
cpu0_L1I AVERAGE dtMISS LATENCY: 0 cycles
cpu0_L1I PAGE CROSSINGS (TLB HIT):         0 
cpu0_L1I PAGE CROSSINGS (TLB MISS):         0 
cpu0_L1I AVERAGE MISS LATENCY: 19.6951 cycles
cpu0_ITLB TOTAL       ACCESS:   29704450  HIT:   27763904  MISS:    1940546  iACCESS:   29704450  iHIT:   27763904  iMISS:    1940546  dACCESS:          0  dHIT:          0  dMISS:          0  itACCESS:          0  itHIT:          0  itMISS:          0  dtACCESS:          0  dtHIT:          0  dtMISS:          0
cpu0_ITLB LOAD         ACCESS:   29704450  HIT:   27763904  MISS:    1940546  iACCESS:   29704450  iHIT:   27763904  iMISS:    1940546  dACCESS:          0  dHIT:          0  dMISS:          0  itACCESS:          0  itHIT:          0  itMISS:          0  dtACCESS:          0  dtHIT:          0  dtMISS:          0
cpu0_ITLB RFO          ACCESS:          0  HIT:          0  MISS:          0  iACCESS:          0  iHIT:          0  iMISS:          0  dACCESS:          0  dHIT:          0  dMISS:          0  itACCESS:          0  itHIT:          0  itMISS:          0  dtACCESS:          0  dtHIT:          0  dtMISS:          0
cpu0_ITLB PREFETCH     ACCESS:          0  HIT:          0  MISS:          0  iACCESS:          0  iHIT:          0  iMISS:          0  dACCESS:          0  dHIT:          0  dMISS:          0  itACCESS:          0  itHIT:          0  itMISS:          0  dtACCESS:          0  dtHIT:          0  dtMISS:          0
cpu0_ITLB WRITE        ACCESS:          0  HIT:          0  MISS:          0  iACCESS:          0  iHIT:          0  iMISS:          0  dACCESS:          0  dHIT:          0  dMISS:          0  itACCESS:          0  itHIT:          0  itMISS:          0  dtACCESS:          0  dtHIT:          0  dtMISS:          0
cpu0_ITLB TRANSLATION  ACCESS:          0  HIT:          0  MISS:          0  iACCESS:          0  iHIT:          0  iMISS:          0  dACCESS:          0  dHIT:          0  dMISS:          0  itACCESS:          0  itHIT:          0  itMISS:          0  dtACCESS:          0  dtHIT:          0  dtMISS:          0
cpu0_ITLB PREFETCH  REQUESTED:          0  ISSUED:          0  CROSSED:          0  USEFUL:     326666  USELESS:      62074
cpu0_ITLB AVERAGE iMISS LATENCY: 7.89434 cycles
cpu0_ITLB AVERAGE dMISS LATENCY: 0 cycles
cpu0_ITLB AVERAGE itMISS LATENCY: 0 cycles
cpu0_ITLB AVERAGE dtMISS LATENCY: 0 cycles
cpu0_ITLB PAGE CROSSINGS (TLB HIT):         0 
cpu0_ITLB PAGE CROSSINGS (TLB MISS):         0 
cpu0_ITLB AVERAGE MISS LATENCY: 7.89434 cycles
cpu0_DTLB TOTAL       ACCESS:   27954646  HIT:   25968651  MISS:    1985995  iACCESS:          0  iHIT:          0  iMISS:          0  dACCESS:   27954646  dHIT:   25968651  dMISS:    1985995  itACCESS:          0  itHIT:          0  itMISS:          0  dtACCESS:          0  dtHIT:          0  dtMISS:          0
cpu0_DTLB LOAD         ACCESS:   27954646  HIT:   25968651  MISS:    1985995  iACCESS:          0  iHIT:          0  iMISS:          0  dACCESS:   27954646  dHIT:   25968651  dMISS:    1985995  itACCESS:          0  itHIT:          0  itMISS:          0  dtACCESS:          0  dtHIT:          0  dtMISS:          0
cpu0_DTLB RFO          ACCESS:          0  HIT:          0  MISS:          0  iACCESS:          0  iHIT:          0  iMISS:          0  dACCESS:          0  dHIT:          0  dMISS:          0  itACCESS:          0  itHIT:          0  itMISS:          0  dtACCESS:          0  dtHIT:          0  dtMISS:          0
cpu0_DTLB PREFETCH     ACCESS:          0  HIT:          0  MISS:          0  iACCESS:          0  iHIT:          0  iMISS:          0  dACCESS:          0  dHIT:          0  dMISS:          0  itACCESS:          0  itHIT:          0  itMISS:          0  dtACCESS:          0  dtHIT:          0  dtMISS:          0
cpu0_DTLB WRITE        ACCESS:          0  HIT:          0  MISS:          0  iACCESS:          0  iHIT:          0  iMISS:          0  dACCESS:          0  dHIT:          0  dMISS:          0  itACCESS:          0  itHIT:          0  itMISS:          0  dtACCESS:          0  dtHIT:          0  dtMISS:          0
cpu0_DTLB TRANSLATION  ACCESS:          0  HIT:          0  MISS:          0  iACCESS:          0  iHIT:          0  iMISS:          0  dACCESS:          0  dHIT:          0  dMISS:          0  itACCESS:          0  itHIT:          0  itMISS:          0  dtACCESS:          0  dtHIT:          0  dtMISS:          0
cpu0_DTLB PREFETCH  REQUESTED:          0  ISSUED:          0  CROSSED:          0  USEFUL:          0  USELESS:          0
cpu0_DTLB AVERAGE iMISS LATENCY: 0 cycles
cpu0_DTLB AVERAGE dMISS LATENCY: 20.2493 cycles
cpu0_DTLB AVERAGE itMISS LATENCY: 0 cycles
cpu0_DTLB AVERAGE dtMISS LATENCY: 0 cycles
cpu0_DTLB PAGE CROSSINGS (TLB HIT):         0 
cpu0_DTLB PAGE CROSSINGS (TLB MISS):         0 
cpu0_DTLB AVERAGE MISS LATENCY: 20.2493 cycles
cpu0_STLB TOTAL       ACCESS:    1625653  HIT:    1393114  MISS:     232539  iACCESS:     388738  iHIT:     300852  iMISS:      87886  dACCESS:    1236915  dHIT:    1092262  dMISS:     144653  itACCESS:          0  itHIT:          0  itMISS:          0  dtACCESS:          0  dtHIT:          0  dtMISS:          0
cpu0_STLB LOAD         ACCESS:    1625653  HIT:    1393114  MISS:     232539  iACCESS:     388738  iHIT:     300852  iMISS:      87886  dACCESS:    1236915  dHIT:    1092262  dMISS:     144653  itACCESS:          0  itHIT:          0  itMISS:          0  dtACCESS:          0  dtHIT:          0  dtMISS:          0
cpu0_STLB RFO          ACCESS:          0  HIT:          0  MISS:          0  iACCESS:          0  iHIT:          0  iMISS:          0  dACCESS:          0  dHIT:          0  dMISS:          0  itACCESS:          0  itHIT:          0  itMISS:          0  dtACCESS:          0  dtHIT:          0  dtMISS:          0
cpu0_STLB PREFETCH     ACCESS:          0  HIT:          0  MISS:          0  iACCESS:          0  iHIT:          0  iMISS:          0  dACCESS:          0  dHIT:          0  dMISS:          0  itACCESS:          0  itHIT:          0  itMISS:          0  dtACCESS:          0  dtHIT:          0  dtMISS:          0
cpu0_STLB WRITE        ACCESS:          0  HIT:          0  MISS:          0  iACCESS:          0  iHIT:          0  iMISS:          0  dACCESS:          0  dHIT:          0  dMISS:          0  itACCESS:          0  itHIT:          0  itMISS:          0  dtACCESS:          0  dtHIT:          0  dtMISS:          0
cpu0_STLB TRANSLATION  ACCESS:          0  HIT:          0  MISS:          0  iACCESS:          0  iHIT:          0  iMISS:          0  dACCESS:          0  dHIT:          0  dMISS:          0  itACCESS:          0  itHIT:          0  itMISS:          0  dtACCESS:          0  dtHIT:          0  dtMISS:          0
cpu0_STLB PREFETCH  REQUESTED:          0  ISSUED:          0  CROSSED:          0  USEFUL:          0  USELESS:          0
cpu0_STLB AVERAGE iMISS LATENCY: 52.5252 cycles
cpu0_STLB AVERAGE dMISS LATENCY: 130.38 cycles
cpu0_STLB AVERAGE itMISS LATENCY: 0 cycles
cpu0_STLB AVERAGE dtMISS LATENCY: 0 cycles
cpu0_STLB PAGE CROSSINGS (TLB HIT):         0 
cpu0_STLB PAGE CROSSINGS (TLB MISS):         0 
cpu0_STLB AVERAGE MISS LATENCY: 182.905 cycles
cpu0_L1D TOTAL       ACCESS:   42451577  HIT:   38355002  MISS:    4096575  iACCESS:          0  iHIT:          0  iMISS:          0  dACCESS:   42152291  dHIT:   38328013  dMISS:    3824278  itACCESS:      94218  itHIT:      15194  itMISS:      79024  dtACCESS:     205068  dtHIT:      11795  dtMISS:     193273
cpu0_L1D LOAD         ACCESS:   19294476  HIT:   17571759  MISS:    1722717  iACCESS:          0  iHIT:          0  iMISS:          0  dACCESS:   19294476  dHIT:   17571759  dMISS:    1722717  itACCESS:          0  itHIT:          0  itMISS:          0  dtACCESS:          0  dtHIT:          0  dtMISS:          0
cpu0_L1D RFO          ACCESS:          0  HIT:          0  MISS:          0  iACCESS:          0  iHIT:          0  iMISS:          0  dACCESS:          0  dHIT:          0  dMISS:          0  itACCESS:          0  itHIT:          0  itMISS:          0  dtACCESS:          0  dtHIT:          0  dtMISS:          0
cpu0_L1D PREFETCH     ACCESS:   12683212  HIT:   11080512  MISS:    1602700  iACCESS:          0  iHIT:          0  iMISS:          0  dACCESS:   12683212  dHIT:   11080512  dMISS:    1602700  itACCESS:          0  itHIT:          0  itMISS:          0  dtACCESS:          0  dtHIT:          0  dtMISS:          0
cpu0_L1D WRITE        ACCESS:   10174603  HIT:    9675742  MISS:     498861  iACCESS:          0  iHIT:          0  iMISS:          0  dACCESS:   10174603  dHIT:    9675742  dMISS:     498861  itACCESS:          0  itHIT:          0  itMISS:          0  dtACCESS:          0  dtHIT:          0  dtMISS:          0
cpu0_L1D TRANSLATION  ACCESS:     299286  HIT:      26989  MISS:     272297  iACCESS:          0  iHIT:          0  iMISS:          0  dACCESS:          0  dHIT:          0  dMISS:          0  itACCESS:      94218  itHIT:      15194  itMISS:      79024  dtACCESS:     205068  dtHIT:      11795  dtMISS:     193273
cpu0_L1D PREFETCH  REQUESTED:   19294476  ISSUED:   17254749  CROSSED:          0  USEFUL:     310630  USELESS:     703809
cpu0_L1D AVERAGE iMISS LATENCY: 0 cycles
cpu0_L1D AVERAGE dMISS LATENCY: 41.1333 cycles
cpu0_L1D AVERAGE itMISS LATENCY: 2.7935 cycles
cpu0_L1D AVERAGE dtMISS LATENCY: 6.90971 cycles
cpu0_L1D PAGE CROSSINGS (TLB HIT):         0 
cpu0_L1D PAGE CROSSINGS (TLB MISS):         0 
cpu0_L1D AVERAGE MISS LATENCY: 50.8365 cycles
cpu0_L2C TOTAL       ACCESS:    7214246  HIT:    3677449  MISS:    3536797  iACCESS:    3326563  iHIT:    2009557  iMISS:    1317006  dACCESS:    3627754  dHIT:    1632264  dMISS:    1995490  itACCESS:      79024  itHIT:      13220  itMISS:      65804  dtACCESS:     180905  dtHIT:      22408  dtMISS:     158497
cpu0_L2C LOAD         ACCESS:    1713642  HIT:     910131  MISS:     803511  iACCESS:     763756  iHIT:     491070  iMISS:     272686  dACCESS:     949886  dHIT:     419061  dMISS:     530825  itACCESS:          0  itHIT:          0  itMISS:          0  dtACCESS:          0  dtHIT:          0  dtMISS:          0
cpu0_L2C RFO          ACCESS:     166161  HIT:      60669  MISS:     105492  iACCESS:          0  iHIT:          0  iMISS:          0  dACCESS:     166161  dHIT:      60669  dMISS:     105492  itACCESS:          0  itHIT:          0  itMISS:          0  dtACCESS:          0  dtHIT:          0  dtMISS:          0
cpu0_L2C PREFETCH     ACCESS:    4796512  HIT:    2395179  MISS:    2401333  iACCESS:    2562807  iHIT:    1518487  iMISS:    1044320  dACCESS:    2233705  dHIT:     876692  dMISS:    1357013  itACCESS:          0  itHIT:          0  itMISS:          0  dtACCESS:          0  dtHIT:          0  dtMISS:          0
cpu0_L2C WRITE        ACCESS:     278002  HIT:     275842  MISS:       2160  iACCESS:          0  iHIT:          0  iMISS:          0  dACCESS:     278002  dHIT:     275842  dMISS:       2160  itACCESS:          0  itHIT:          0  itMISS:          0  dtACCESS:          0  dtHIT:          0  dtMISS:          0
cpu0_L2C TRANSLATION  ACCESS:     259929  HIT:      35628  MISS:     224301  iACCESS:          0  iHIT:          0  iMISS:          0  dACCESS:          0  dHIT:          0  dMISS:          0  itACCESS:      79024  itHIT:      13220  itMISS:      65804  dtACCESS:     180905  dtHIT:      22408  dtMISS:     158497
cpu0_L2C PREFETCH  REQUESTED:    1474169  ISSUED:    1474149  CROSSED:          0  USEFUL:     350097  USELESS:     294861
cpu0_L2C AVERAGE iMISS LATENCY: 35.153 cycles
cpu0_L2C AVERAGE dMISS LATENCY: 61.3002 cycles
cpu0_L2C AVERAGE itMISS LATENCY: 3.01518 cycles
cpu0_L2C AVERAGE dtMISS LATENCY: 7.49523 cycles
cpu0_L2C PAGE CROSSINGS (TLB HIT):         0 
cpu0_L2C PAGE CROSSINGS (TLB MISS):         0 
cpu0_L2C AVERAGE MISS LATENCY: 106.964 cycles
LLC TOTAL       ACCESS:    3501890  HIT:    1551060  MISS:    1950830  iACCESS:    1238521  iHIT:     562634  iMISS:     675887  dACCESS:    2039068  dHIT:     941813  dMISS:    1097255  itACCESS:      65804  itHIT:      12311  itMISS:      53493  dtACCESS:     158497  dtHIT:      34302  dtMISS:     124195
LLC LOAD         ACCESS:     797741  HIT:     381764  MISS:     415977  iACCESS:     271394  iHIT:     130707  iMISS:     140687  dACCESS:     526347  dHIT:     251057  dMISS:     275290  itACCESS:          0  itHIT:          0  itMISS:          0  dtACCESS:          0  dtHIT:          0  dtMISS:          0
LLC RFO          ACCESS:     105490  HIT:      40978  MISS:      64512  iACCESS:          0  iHIT:          0  iMISS:          0  dACCESS:     105490  dHIT:      40978  dMISS:      64512  itACCESS:          0  itHIT:          0  itMISS:          0  dtACCESS:          0  dtHIT:          0  dtMISS:          0
LLC PREFETCH     ACCESS:    2225361  HIT:     941193  MISS:    1284168  iACCESS:     967127  iHIT:     431927  iMISS:     535200  dACCESS:    1258234  dHIT:     509266  dMISS:     748968  itACCESS:          0  itHIT:          0  itMISS:          0  dtACCESS:          0  dtHIT:          0  dtMISS:          0
LLC WRITE        ACCESS:     148997  HIT:     140512  MISS:       8485  iACCESS:          0  iHIT:          0  iMISS:          0  dACCESS:     148997  dHIT:     140512  dMISS:       8485  itACCESS:          0  itHIT:          0  itMISS:          0  dtACCESS:          0  dtHIT:          0  dtMISS:          0
LLC TRANSLATION  ACCESS:     224301  HIT:      46613  MISS:     177688  iACCESS:          0  iHIT:          0  iMISS:          0  dACCESS:          0  dHIT:          0  dMISS:          0  itACCESS:      65804  itHIT:      12311  itMISS:      53493  dtACCESS:     158497  dtHIT:      34302  dtMISS:     124195
LLC PREFETCH  REQUESTED:          0  ISSUED:          0  CROSSED:          0  USEFUL:          0  USELESS:          0
LLC AVERAGE iMISS LATENCY: 51.2996 cycles
LLC AVERAGE dMISS LATENCY: 93.0914 cycles
LLC AVERAGE itMISS LATENCY: 4.80042 cycles
LLC AVERAGE dtMISS LATENCY: 11.9889 cycles
LLC PAGE CROSSINGS (TLB HIT):         0 
LLC PAGE CROSSINGS (TLB MISS):         0 
LLC AVERAGE MISS LATENCY: 161.181 cycles

PageTableWalker TOTAL       ACCESS:     116014  
PageTableWalker AVERAGE LATENCY: 5.06753 cycles
PageTableWalker TOTAL LATENCY: 587904 cycles

DRAM Statistics
Channel 0
 RQ ROW_BUFFER_HIT:     527923
  ROW_BUFFER_MISS:    1405932
 AVG DBUS CONGESTED CYCLE:    3.63719
 WQ ROW_BUFFER_HIT:      38363
  ROW_BUFFER_MISS:      26003  FULL:          0

