last_page:0x200000000000000
VMEM_RES_CAP:0x100000
PAGE_SIZE:4096
LOG2_PAGE_SIZE:12
LOG2_PAGE_TABLE_SIZE:9
page_table_levels:5
WARNING: physical memory size is smaller than virtual memory size
FDiP enabled with aggresivity 16

*** ChampSim Multicore Out-of-Order Simulator ***

Warmup Instructions: 50000000
Simulation Instructions: 100000000
Number of CPUs: 1
Small page size: 4096
Large page size: 2097152

CPU 0 Bimodal branch predictor
Basic BTB sets: 1024 ways: 8 indirect buffer size: 4096 RAS size: 64
Instruction page size distrubution: 0
Loading instruction page size distribution from /home/bsc/bsc018186/scratch/itp_asplos25_AE/dump/srv675_ap.pdst
Data page size distrubution: 0
Loading data page size distribution from /home/bsc/bsc018186/scratch/itp_asplos25_AE/dump/srv675_ap.pdst
cpu0_L2C IP-based stride prefetcher
cpu0_L2C is using PTP replacement policy:
	TLB_STRESS_THRESHOLD:0
	PTE_EVICTION_RATIO:0
cpu0_L1D next line prefetcher
cpu0_L1I next line prefetcher
Off-chip DRAM Size: 4 GiB Channels: 1 Width: 64-bit Data Rate: 3200 MT/s
Heartbeat CPU 0 instructions: 10000001 cycles: 2500161 heartbeat IPC: 3.99975 cumulative IPC: 3.99975 (Simulation time: 0 hr 0 min 37 sec) 
Heartbeat CPU 0 instructions: 20000000 cycles: 5000167 heartbeat IPC: 4 cumulative IPC: 3.99987 (Simulation time: 0 hr 1 min 16 sec) 
Heartbeat CPU 0 instructions: 30000001 cycles: 7500287 heartbeat IPC: 3.99981 cumulative IPC: 3.99985 (Simulation time: 0 hr 1 min 56 sec) 
Heartbeat CPU 0 instructions: 40000001 cycles: 10000364 heartbeat IPC: 3.99988 cumulative IPC: 3.99986 (Simulation time: 0 hr 2 min 37 sec) 
Heartbeat CPU 0 instructions: 50000003 cycles: 12502035 heartbeat IPC: 3.99733 cumulative IPC: 3.99935 (Simulation time: 0 hr 3 min 17 sec) 
Warmup finished CPU 0 instructions: 50000003 cycles: 12502036 cumulative IPC: 3.99935 (Simulation time: 0 hr 3 min 17 sec) 

Warmup complete CPU 0 instructions: 50000003 cycles: 12502036 (Simulation time: 0 hr 3 min 17 sec) 

Heartbeat CPU 0 instructions: 60000000 cycles: 26604210 heartbeat IPC: 0.709111 cumulative IPC: 0.709111 (Simulation time: 0 hr 4 min 21 sec) 
Heartbeat CPU 0 instructions: 70000003 cycles: 41218497 heartbeat IPC: 0.684263 cumulative IPC: 0.696465 (Simulation time: 0 hr 5 min 25 sec) 
Heartbeat CPU 0 instructions: 80000004 cycles: 55221167 heartbeat IPC: 0.71415 cumulative IPC: 0.702262 (Simulation time: 0 hr 6 min 29 sec) 
Heartbeat CPU 0 instructions: 90000004 cycles: 69351570 heartbeat IPC: 0.707694 cumulative IPC: 0.703612 (Simulation time: 0 hr 7 min 33 sec) 
Heartbeat CPU 0 instructions: 100000002 cycles: 82930957 heartbeat IPC: 0.736411 cumulative IPC: 0.709936 (Simulation time: 0 hr 8 min 35 sec) 
*** Reached end of trace: /gpfs/projects/bsc18/MN4/bsc18/romol/ChampSim/traces/qualcomm_srv/srv675_ap.champsimtrace.xz
Heartbeat CPU 0 instructions: 110000001 cycles: 96691255 heartbeat IPC: 0.726729 cumulative IPC: 0.712681 (Simulation time: 0 hr 9 min 38 sec) 
Heartbeat CPU 0 instructions: 120000000 cycles: 110421949 heartbeat IPC: 0.728296 cumulative IPC: 0.71487 (Simulation time: 0 hr 10 min 41 sec) 
Heartbeat CPU 0 instructions: 130000000 cycles: 124185397 heartbeat IPC: 0.726563 cumulative IPC: 0.716311 (Simulation time: 0 hr 11 min 45 sec) 
Heartbeat CPU 0 instructions: 140000000 cycles: 137930623 heartbeat IPC: 0.727526 cumulative IPC: 0.71754 (Simulation time: 0 hr 12 min 48 sec) 
Heartbeat CPU 0 instructions: 150000001 cycles: 151795784 heartbeat IPC: 0.721233 cumulative IPC: 0.717908 (Simulation time: 0 hr 13 min 51 sec) 
Simulation finished CPU 0 instructions: 100000003 cycles: 139293750 cumulative IPC: 0.717908 (Simulation time: 0 hr 13 min 51 sec) 

Simulation complete CPU 0 instructions: 100000003 cycles: 139293750 (Simulation time: 0 hr 13 min 51 sec) 


ChampSim completed all CPUs

Saving instructions large page distribution to /home/bsc/bsc018186/scratch/itp_asplos25_AE/dump/srv675_ap.pdst...
Saving data large page distribution to /home/bsc/bsc018186/scratch/itp_asplos25_AE/dump/srv675_ap.pdst...
=== Simulation ===
CPU 0 runs /gpfs/projects/bsc18/MN4/bsc18/romol/ChampSim/traces/qualcomm_srv/srv675_ap.champsimtrace.xz

Region of Interest Statistics

CPU 0 cumulative IPC: 0.717908 instructions: 100000003 cycles: 139293750
CPU 0 Branch Prediction Accuracy: 83.474% MPKI: 29.6585 Average ROB Occupancy at Mispredict: 12.2567
Branch type MPKI
BRANCH_DIRECT_JUMP: 0.94247
BRANCH_INDIRECT: 15.3874
BRANCH_CONDITIONAL: 9.71211
BRANCH_DIRECT_CALL: 1.80423
BRANCH_INDIRECT_CALL: 0.49851
BRANCH_RETURN: 1.31372

Instructions large pages: 0
Instructions small pages: 10164
Large page distribution for instructions: 0%

Data large pages: 0
Data small pages: 9227
Large page distribution for data: 0%

cpu0_L1I TOTAL       ACCESS:   35130927  HIT:   26516585  MISS:    8614342  iACCESS:   35130927  iHIT:   26516585  iMISS:    8614342  dACCESS:          0  dHIT:          0  dMISS:          0  itACCESS:          0  itHIT:          0  itMISS:          0  dtACCESS:          0  dtHIT:          0  dtMISS:          0
cpu0_L1I LOAD         ACCESS:   10244244  HIT:    7830162  MISS:    2414082  iACCESS:   10244244  iHIT:    7830162  iMISS:    2414082  dACCESS:          0  dHIT:          0  dMISS:          0  itACCESS:          0  itHIT:          0  itMISS:          0  dtACCESS:          0  dtHIT:          0  dtMISS:          0
cpu0_L1I RFO          ACCESS:          0  HIT:          0  MISS:          0  iACCESS:          0  iHIT:          0  iMISS:          0  dACCESS:          0  dHIT:          0  dMISS:          0  itACCESS:          0  itHIT:          0  itMISS:          0  dtACCESS:          0  dtHIT:          0  dtMISS:          0
cpu0_L1I PREFETCH     ACCESS:   24886683  HIT:   18686423  MISS:    6200260  iACCESS:   24886683  iHIT:   18686423  iMISS:    6200260  dACCESS:          0  dHIT:          0  dMISS:          0  itACCESS:          0  itHIT:          0  itMISS:          0  dtACCESS:          0  dtHIT:          0  dtMISS:          0
cpu0_L1I WRITE        ACCESS:          0  HIT:          0  MISS:          0  iACCESS:          0  iHIT:          0  iMISS:          0  dACCESS:          0  dHIT:          0  dMISS:          0  itACCESS:          0  itHIT:          0  itMISS:          0  dtACCESS:          0  dtHIT:          0  dtMISS:          0
cpu0_L1I TRANSLATION  ACCESS:          0  HIT:          0  MISS:          0  iACCESS:          0  iHIT:          0  iMISS:          0  dACCESS:          0  dHIT:          0  dMISS:          0  itACCESS:          0  itHIT:          0  itMISS:          0  dtACCESS:          0  dtHIT:          0  dtMISS:          0
cpu0_L1I PREFETCH  REQUESTED:   27118447  ISSUED:   27115583  CROSSED:          0  USEFUL:    1931955  USELESS:     634842
cpu0_L1I AVERAGE iMISS LATENCY: 13.494 cycles
cpu0_L1I AVERAGE dMISS LATENCY: 0 cycles
cpu0_L1I AVERAGE itMISS LATENCY: 0 cycles
cpu0_L1I AVERAGE dtMISS LATENCY: 0 cycles
cpu0_L1I PAGE CROSSINGS (TLB HIT):         0 
cpu0_L1I PAGE CROSSINGS (TLB MISS):         0 
cpu0_L1I AVERAGE MISS LATENCY: 13.494 cycles
cpu0_ITLB TOTAL       ACCESS:   29019576  HIT:   27032678  MISS:    1986898  iACCESS:   29019576  iHIT:   27032678  iMISS:    1986898  dACCESS:          0  dHIT:          0  dMISS:          0  itACCESS:          0  itHIT:          0  itMISS:          0  dtACCESS:          0  dtHIT:          0  dtMISS:          0
cpu0_ITLB LOAD         ACCESS:   29019576  HIT:   27032678  MISS:    1986898  iACCESS:   29019576  iHIT:   27032678  iMISS:    1986898  dACCESS:          0  dHIT:          0  dMISS:          0  itACCESS:          0  itHIT:          0  itMISS:          0  dtACCESS:          0  dtHIT:          0  dtMISS:          0
cpu0_ITLB RFO          ACCESS:          0  HIT:          0  MISS:          0  iACCESS:          0  iHIT:          0  iMISS:          0  dACCESS:          0  dHIT:          0  dMISS:          0  itACCESS:          0  itHIT:          0  itMISS:          0  dtACCESS:          0  dtHIT:          0  dtMISS:          0
cpu0_ITLB PREFETCH     ACCESS:          0  HIT:          0  MISS:          0  iACCESS:          0  iHIT:          0  iMISS:          0  dACCESS:          0  dHIT:          0  dMISS:          0  itACCESS:          0  itHIT:          0  itMISS:          0  dtACCESS:          0  dtHIT:          0  dtMISS:          0
cpu0_ITLB WRITE        ACCESS:          0  HIT:          0  MISS:          0  iACCESS:          0  iHIT:          0  iMISS:          0  dACCESS:          0  dHIT:          0  dMISS:          0  itACCESS:          0  itHIT:          0  itMISS:          0  dtACCESS:          0  dtHIT:          0  dtMISS:          0
cpu0_ITLB TRANSLATION  ACCESS:          0  HIT:          0  MISS:          0  iACCESS:          0  iHIT:          0  iMISS:          0  dACCESS:          0  dHIT:          0  dMISS:          0  itACCESS:          0  itHIT:          0  itMISS:          0  dtACCESS:          0  dtHIT:          0  dtMISS:          0
cpu0_ITLB PREFETCH  REQUESTED:          0  ISSUED:          0  CROSSED:          0  USEFUL:     325576  USELESS:      62404
cpu0_ITLB AVERAGE iMISS LATENCY: 2.68551 cycles
cpu0_ITLB AVERAGE dMISS LATENCY: 0 cycles
cpu0_ITLB AVERAGE itMISS LATENCY: 0 cycles
cpu0_ITLB AVERAGE dtMISS LATENCY: 0 cycles
cpu0_ITLB PAGE CROSSINGS (TLB HIT):         0 
cpu0_ITLB PAGE CROSSINGS (TLB MISS):         0 
cpu0_ITLB AVERAGE MISS LATENCY: 2.68551 cycles
cpu0_DTLB TOTAL       ACCESS:   27737109  HIT:   25658460  MISS:    2078649  iACCESS:          0  iHIT:          0  iMISS:          0  dACCESS:   27737109  dHIT:   25658460  dMISS:    2078649  itACCESS:          0  itHIT:          0  itMISS:          0  dtACCESS:          0  dtHIT:          0  dtMISS:          0
cpu0_DTLB LOAD         ACCESS:   27737109  HIT:   25658460  MISS:    2078649  iACCESS:          0  iHIT:          0  iMISS:          0  dACCESS:   27737109  dHIT:   25658460  dMISS:    2078649  itACCESS:          0  itHIT:          0  itMISS:          0  dtACCESS:          0  dtHIT:          0  dtMISS:          0
cpu0_DTLB RFO          ACCESS:          0  HIT:          0  MISS:          0  iACCESS:          0  iHIT:          0  iMISS:          0  dACCESS:          0  dHIT:          0  dMISS:          0  itACCESS:          0  itHIT:          0  itMISS:          0  dtACCESS:          0  dtHIT:          0  dtMISS:          0
cpu0_DTLB PREFETCH     ACCESS:          0  HIT:          0  MISS:          0  iACCESS:          0  iHIT:          0  iMISS:          0  dACCESS:          0  dHIT:          0  dMISS:          0  itACCESS:          0  itHIT:          0  itMISS:          0  dtACCESS:          0  dtHIT:          0  dtMISS:          0
cpu0_DTLB WRITE        ACCESS:          0  HIT:          0  MISS:          0  iACCESS:          0  iHIT:          0  iMISS:          0  dACCESS:          0  dHIT:          0  dMISS:          0  itACCESS:          0  itHIT:          0  itMISS:          0  dtACCESS:          0  dtHIT:          0  dtMISS:          0
cpu0_DTLB TRANSLATION  ACCESS:          0  HIT:          0  MISS:          0  iACCESS:          0  iHIT:          0  iMISS:          0  dACCESS:          0  dHIT:          0  dMISS:          0  itACCESS:          0  itHIT:          0  itMISS:          0  dtACCESS:          0  dtHIT:          0  dtMISS:          0
cpu0_DTLB PREFETCH  REQUESTED:          0  ISSUED:          0  CROSSED:          0  USEFUL:          0  USELESS:          0
cpu0_DTLB AVERAGE iMISS LATENCY: 0 cycles
cpu0_DTLB AVERAGE dMISS LATENCY: 8.27276 cycles
cpu0_DTLB AVERAGE itMISS LATENCY: 0 cycles
cpu0_DTLB AVERAGE dtMISS LATENCY: 0 cycles
cpu0_DTLB PAGE CROSSINGS (TLB HIT):         0 
cpu0_DTLB PAGE CROSSINGS (TLB MISS):         0 
cpu0_DTLB AVERAGE MISS LATENCY: 8.27276 cycles
cpu0_STLB TOTAL       ACCESS:    1626665  HIT:    1467833  MISS:     158832  iACCESS:     388021  iHIT:     332345  iMISS:      55676  dACCESS:    1238644  dHIT:    1135488  dMISS:     103156  itACCESS:          0  itHIT:          0  itMISS:          0  dtACCESS:          0  dtHIT:          0  dtMISS:          0
cpu0_STLB LOAD         ACCESS:    1626665  HIT:    1467833  MISS:     158832  iACCESS:     388021  iHIT:     332345  iMISS:      55676  dACCESS:    1238644  dHIT:    1135488  dMISS:     103156  itACCESS:          0  itHIT:          0  itMISS:          0  dtACCESS:          0  dtHIT:          0  dtMISS:          0
cpu0_STLB RFO          ACCESS:          0  HIT:          0  MISS:          0  iACCESS:          0  iHIT:          0  iMISS:          0  dACCESS:          0  dHIT:          0  dMISS:          0  itACCESS:          0  itHIT:          0  itMISS:          0  dtACCESS:          0  dtHIT:          0  dtMISS:          0
cpu0_STLB PREFETCH     ACCESS:          0  HIT:          0  MISS:          0  iACCESS:          0  iHIT:          0  iMISS:          0  dACCESS:          0  dHIT:          0  dMISS:          0  itACCESS:          0  itHIT:          0  itMISS:          0  dtACCESS:          0  dtHIT:          0  dtMISS:          0
cpu0_STLB WRITE        ACCESS:          0  HIT:          0  MISS:          0  iACCESS:          0  iHIT:          0  iMISS:          0  dACCESS:          0  dHIT:          0  dMISS:          0  itACCESS:          0  itHIT:          0  itMISS:          0  dtACCESS:          0  dtHIT:          0  dtMISS:          0
cpu0_STLB TRANSLATION  ACCESS:          0  HIT:          0  MISS:          0  iACCESS:          0  iHIT:          0  iMISS:          0  dACCESS:          0  dHIT:          0  dMISS:          0  itACCESS:          0  itHIT:          0  itMISS:          0  dtACCESS:          0  dtHIT:          0  dtMISS:          0
cpu0_STLB PREFETCH  REQUESTED:          0  ISSUED:          0  CROSSED:          0  USEFUL:          0  USELESS:          0
cpu0_STLB AVERAGE iMISS LATENCY: 14.3393 cycles
cpu0_STLB AVERAGE dMISS LATENCY: 46.1697 cycles
cpu0_STLB AVERAGE itMISS LATENCY: 0 cycles
cpu0_STLB AVERAGE dtMISS LATENCY: 0 cycles
cpu0_STLB PAGE CROSSINGS (TLB HIT):         0 
cpu0_STLB PAGE CROSSINGS (TLB MISS):         0 
cpu0_STLB AVERAGE MISS LATENCY: 60.5089 cycles
cpu0_L1D TOTAL       ACCESS:   41563818  HIT:   37994411  MISS:    3569407  iACCESS:          0  iHIT:          0  iMISS:          0  dACCESS:   41342463  dHIT:   37975565  dMISS:    3366898  itACCESS:      60374  itHIT:       8750  itMISS:      51624  dtACCESS:     160981  dtHIT:      10096  dtMISS:     150885
cpu0_L1D LOAD         ACCESS:   18965535  HIT:   17437302  MISS:    1528233  iACCESS:          0  iHIT:          0  iMISS:          0  dACCESS:   18965535  dHIT:   17437302  dMISS:    1528233  itACCESS:          0  itHIT:          0  itMISS:          0  dtACCESS:          0  dtHIT:          0  dtMISS:          0
cpu0_L1D RFO          ACCESS:          0  HIT:          0  MISS:          0  iACCESS:          0  iHIT:          0  iMISS:          0  dACCESS:          0  dHIT:          0  dMISS:          0  itACCESS:          0  itHIT:          0  itMISS:          0  dtACCESS:          0  dtHIT:          0  dtMISS:          0
cpu0_L1D PREFETCH     ACCESS:   12238177  HIT:   10843732  MISS:    1394445  iACCESS:          0  iHIT:          0  iMISS:          0  dACCESS:   12238177  dHIT:   10843732  dMISS:    1394445  itACCESS:          0  itHIT:          0  itMISS:          0  dtACCESS:          0  dtHIT:          0  dtMISS:          0
cpu0_L1D WRITE        ACCESS:   10138751  HIT:    9694531  MISS:     444220  iACCESS:          0  iHIT:          0  iMISS:          0  dACCESS:   10138751  dHIT:    9694531  dMISS:     444220  itACCESS:          0  itHIT:          0  itMISS:          0  dtACCESS:          0  dtHIT:          0  dtMISS:          0
cpu0_L1D TRANSLATION  ACCESS:     221355  HIT:      18846  MISS:     202509  iACCESS:          0  iHIT:          0  iMISS:          0  dACCESS:          0  dHIT:          0  dMISS:          0  itACCESS:      60374  itHIT:       8750  itMISS:      51624  dtACCESS:     160981  dtHIT:      10096  dtMISS:     150885
cpu0_L1D PREFETCH  REQUESTED:   18965535  ISSUED:   17080963  CROSSED:          0  USEFUL:     309218  USELESS:     703963
cpu0_L1D AVERAGE iMISS LATENCY: 0 cycles
cpu0_L1D AVERAGE dMISS LATENCY: 34.9191 cycles
cpu0_L1D AVERAGE itMISS LATENCY: 0.502824 cycles
cpu0_L1D AVERAGE dtMISS LATENCY: 1.42683 cycles
cpu0_L1D PAGE CROSSINGS (TLB HIT):         0 
cpu0_L1D PAGE CROSSINGS (TLB MISS):         0 
cpu0_L1D AVERAGE MISS LATENCY: 36.8488 cycles
cpu0_L2C TOTAL       ACCESS:    7002042  HIT:    1231708  MISS:    5770334  iACCESS:    3323375  iHIT:     705786  iMISS:    2617589  dACCESS:    3490717  dHIT:     371645  dMISS:    3119072  itACCESS:      51624  itHIT:      41639  itMISS:       9985  dtACCESS:     136326  dtHIT:     112638  dtMISS:      23688
cpu0_L2C LOAD         ACCESS:    1731312  HIT:     144258  MISS:    1587054  iACCESS:     795604  iHIT:     104909  iMISS:     690695  dACCESS:     935708  dHIT:      39349  dMISS:     896359  itACCESS:          0  itHIT:          0  itMISS:          0  dtACCESS:          0  dtHIT:          0  dtMISS:          0
cpu0_L2C RFO          ACCESS:     156187  HIT:       7094  MISS:     149093  iACCESS:          0  iHIT:          0  iMISS:          0  dACCESS:     156187  dHIT:       7094  dMISS:     149093  itACCESS:          0  itHIT:          0  itMISS:          0  dtACCESS:          0  dtHIT:          0  dtMISS:          0
cpu0_L2C PREFETCH     ACCESS:    4642191  HIT:     870546  MISS:    3771645  iACCESS:    2527771  iHIT:     600877  iMISS:    1926894  dACCESS:    2114420  dHIT:     269669  dMISS:    1844751  itACCESS:          0  itHIT:          0  itMISS:          0  dtACCESS:          0  dtHIT:          0  dtMISS:          0
cpu0_L2C WRITE        ACCESS:     284402  HIT:      55533  MISS:     228869  iACCESS:          0  iHIT:          0  iMISS:          0  dACCESS:     284402  dHIT:      55533  dMISS:     228869  itACCESS:          0  itHIT:          0  itMISS:          0  dtACCESS:          0  dtHIT:          0  dtMISS:          0
cpu0_L2C TRANSLATION  ACCESS:     187950  HIT:     154277  MISS:      33673  iACCESS:          0  iHIT:          0  iMISS:          0  dACCESS:          0  dHIT:          0  dMISS:          0  itACCESS:      51624  itHIT:      41639  itMISS:       9985  dtACCESS:     136326  dtHIT:     112638  dtMISS:      23688
cpu0_L2C PREFETCH  REQUESTED:    1387440  ISSUED:    1387440  CROSSED:          0  USEFUL:     418043  USELESS:     396043
cpu0_L2C AVERAGE iMISS LATENCY: 14.7357 cycles
cpu0_L2C AVERAGE dMISS LATENCY: 24.6199 cycles
cpu0_L2C AVERAGE itMISS LATENCY: 0.228596 cycles
cpu0_L2C AVERAGE dtMISS LATENCY: 0.664716 cycles
cpu0_L2C PAGE CROSSINGS (TLB HIT):         0 
cpu0_L2C PAGE CROSSINGS (TLB MISS):         0 
cpu0_L2C AVERAGE MISS LATENCY: 40.2488 cycles
LLC TOTAL       ACCESS:    5689636  HIT:    4882565  MISS:     807071  iACCESS:    2558769  iHIT:    2313503  iMISS:     245266  dACCESS:    3097194  dHIT:    2560881  dMISS:     536313  itACCESS:       9985  itHIT:       3380  itMISS:       6605  dtACCESS:      23688  dtHIT:       4801  dtMISS:      18887
LLC LOAD         ACCESS:    1585021  HIT:    1392413  MISS:     192608  iACCESS:     688945  iHIT:     634574  iMISS:      54371  dACCESS:     896076  dHIT:     757839  dMISS:     138237  itACCESS:          0  itHIT:          0  itMISS:          0  dtACCESS:          0  dtHIT:          0  dtMISS:          0
LLC RFO          ACCESS:     149056  HIT:     107177  MISS:      41879  iACCESS:          0  iHIT:          0  iMISS:          0  dACCESS:     149056  dHIT:     107177  dMISS:      41879  itACCESS:          0  itHIT:          0  itMISS:          0  dtACCESS:          0  dtHIT:          0  dtMISS:          0
LLC PREFETCH     ACCESS:    3660517  HIT:    3113425  MISS:     547092  iACCESS:    1869824  iHIT:    1678929  iMISS:     190895  dACCESS:    1790693  dHIT:    1434496  dMISS:     356197  itACCESS:          0  itHIT:          0  itMISS:          0  dtACCESS:          0  dtHIT:          0  dtMISS:          0
LLC WRITE        ACCESS:     261369  HIT:     261369  MISS:          0  iACCESS:          0  iHIT:          0  iMISS:          0  dACCESS:     261369  dHIT:     261369  dMISS:          0  itACCESS:          0  itHIT:          0  itMISS:          0  dtACCESS:          0  dtHIT:          0  dtMISS:          0
LLC TRANSLATION  ACCESS:      33673  HIT:       8181  MISS:      25492  iACCESS:          0  iHIT:          0  iMISS:          0  dACCESS:          0  dHIT:          0  dMISS:          0  itACCESS:       9985  itHIT:       3380  itMISS:       6605  dtACCESS:      23688  dtHIT:       4801  dtMISS:      18887
LLC PREFETCH  REQUESTED:          0  ISSUED:          0  CROSSED:          0  USEFUL:          0  USELESS:          0
LLC AVERAGE iMISS LATENCY: 44.1717 cycles
LLC AVERAGE dMISS LATENCY: 108.073 cycles
LLC AVERAGE itMISS LATENCY: 1.39177 cycles
LLC AVERAGE dtMISS LATENCY: 4.17434 cycles
LLC PAGE CROSSINGS (TLB HIT):         0 
LLC PAGE CROSSINGS (TLB MISS):         0 
LLC AVERAGE MISS LATENCY: 157.811 cycles

PageTableWalker TOTAL       ACCESS:      82156  
PageTableWalker AVERAGE LATENCY: 4.08652 cycles
PageTableWalker TOTAL LATENCY: 335732 cycles

DRAM Statistics
Channel 0
 RQ ROW_BUFFER_HIT:     228362
  ROW_BUFFER_MISS:     578679
 AVG DBUS CONGESTED CYCLE:    3.61719
 WQ ROW_BUFFER_HIT:      22630
  ROW_BUFFER_MISS:      30984  FULL:          0

