last_page:0x200000000000000
VMEM_RES_CAP:0x100000
PAGE_SIZE:4096
LOG2_PAGE_SIZE:12
LOG2_PAGE_TABLE_SIZE:9
page_table_levels:5
WARNING: physical memory size is smaller than virtual memory size
FDiP enabled with aggresivity 16

*** ChampSim Multicore Out-of-Order Simulator ***

Warmup Instructions: 50000000
Simulation Instructions: 100000000
Number of CPUs: 1
Small page size: 4096
Large page size: 2097152

CPU 0 Bimodal branch predictor
Basic BTB sets: 1024 ways: 8 indirect buffer size: 4096 RAS size: 64
Instruction page size distrubution: 0
Loading instruction page size distribution from /home/bsc/bsc018186/scratch/itp_asplos25_AE/dump/srv609_ap.pdst
Data page size distrubution: 0
Loading data page size distribution from /home/bsc/bsc018186/scratch/itp_asplos25_AE/dump/srv609_ap.pdst
cpu0_L2C IP-based stride prefetcher
cpu0_L1D next line prefetcher
cpu0_L1I next line prefetcher
Off-chip DRAM Size: 4 GiB Channels: 1 Width: 64-bit Data Rate: 3200 MT/s
Heartbeat CPU 0 instructions: 10000002 cycles: 2500263 heartbeat IPC: 3.99959 cumulative IPC: 3.99959 (Simulation time: 0 hr 0 min 36 sec) 
Heartbeat CPU 0 instructions: 20000000 cycles: 5000303 heartbeat IPC: 3.99994 cumulative IPC: 3.99976 (Simulation time: 0 hr 1 min 13 sec) 
Heartbeat CPU 0 instructions: 30000001 cycles: 7500430 heartbeat IPC: 3.9998 cumulative IPC: 3.99978 (Simulation time: 0 hr 1 min 51 sec) 
Heartbeat CPU 0 instructions: 40000002 cycles: 10002054 heartbeat IPC: 3.99741 cumulative IPC: 3.99918 (Simulation time: 0 hr 2 min 29 sec) 
Heartbeat CPU 0 instructions: 50000002 cycles: 12502055 heartbeat IPC: 4 cumulative IPC: 3.99935 (Simulation time: 0 hr 3 min 6 sec) 
Warmup finished CPU 0 instructions: 50000002 cycles: 12502056 cumulative IPC: 3.99935 (Simulation time: 0 hr 3 min 6 sec) 

Warmup complete CPU 0 instructions: 50000002 cycles: 12502056 (Simulation time: 0 hr 3 min 6 sec) 

Heartbeat CPU 0 instructions: 60000000 cycles: 26843523 heartbeat IPC: 0.697279 cumulative IPC: 0.697279 (Simulation time: 0 hr 4 min 7 sec) 
Heartbeat CPU 0 instructions: 70000002 cycles: 40892257 heartbeat IPC: 0.711809 cumulative IPC: 0.704469 (Simulation time: 0 hr 5 min 7 sec) 
Heartbeat CPU 0 instructions: 80000001 cycles: 54973304 heartbeat IPC: 0.710175 cumulative IPC: 0.706361 (Simulation time: 0 hr 6 min 7 sec) 
Heartbeat CPU 0 instructions: 90000001 cycles: 70214285 heartbeat IPC: 0.656126 cumulative IPC: 0.693094 (Simulation time: 0 hr 7 min 8 sec) 
Heartbeat CPU 0 instructions: 100000004 cycles: 84615308 heartbeat IPC: 0.694396 cumulative IPC: 0.693354 (Simulation time: 0 hr 8 min 9 sec) 
*** Reached end of trace: /gpfs/projects/bsc18/MN4/bsc18/romol/ChampSim/traces/qualcomm_srv/srv609_ap.champsimtrace.xz
Heartbeat CPU 0 instructions: 110000002 cycles: 99436162 heartbeat IPC: 0.674725 cumulative IPC: 0.690178 (Simulation time: 0 hr 9 min 10 sec) 
Heartbeat CPU 0 instructions: 120000002 cycles: 113783588 heartbeat IPC: 0.69699 cumulative IPC: 0.691143 (Simulation time: 0 hr 10 min 11 sec) 
Heartbeat CPU 0 instructions: 130000000 cycles: 128613649 heartbeat IPC: 0.674306 cumulative IPC: 0.688993 (Simulation time: 0 hr 11 min 12 sec) 
Heartbeat CPU 0 instructions: 140000001 cycles: 143733154 heartbeat IPC: 0.661398 cumulative IPC: 0.685814 (Simulation time: 0 hr 12 min 14 sec) 
Heartbeat CPU 0 instructions: 150000000 cycles: 157346319 heartbeat IPC: 0.734583 cumulative IPC: 0.690397 (Simulation time: 0 hr 13 min 14 sec) 
Simulation finished CPU 0 instructions: 100000003 cycles: 144844265 cumulative IPC: 0.690397 (Simulation time: 0 hr 13 min 14 sec) 

Simulation complete CPU 0 instructions: 100000003 cycles: 144844265 (Simulation time: 0 hr 13 min 14 sec) 


ChampSim completed all CPUs

Saving instructions large page distribution to /home/bsc/bsc018186/scratch/itp_asplos25_AE/dump/srv609_ap.pdst...
Saving data large page distribution to /home/bsc/bsc018186/scratch/itp_asplos25_AE/dump/srv609_ap.pdst...
=== Simulation ===
CPU 0 runs /gpfs/projects/bsc18/MN4/bsc18/romol/ChampSim/traces/qualcomm_srv/srv609_ap.champsimtrace.xz

Region of Interest Statistics

CPU 0 cumulative IPC: 0.690397 instructions: 100000003 cycles: 144844265
CPU 0 Branch Prediction Accuracy: 82.7981% MPKI: 30.7994 Average ROB Occupancy at Mispredict: 12.2289
Branch type MPKI
BRANCH_DIRECT_JUMP: 1.05946
BRANCH_INDIRECT: 15.699
BRANCH_CONDITIONAL: 10.2378
BRANCH_DIRECT_CALL: 1.91021
BRANCH_INDIRECT_CALL: 0.5206
BRANCH_RETURN: 1.37238

Instructions large pages: 0
Instructions small pages: 1039
Large page distribution for instructions: 0%

Data large pages: 0
Data small pages: 9598
Large page distribution for data: 0%

cpu0_L1I TOTAL       ACCESS:   35514553  HIT:   27071353  MISS:    8443200  iACCESS:   35514553  iHIT:   27071353  iMISS:    8443200  dACCESS:          0  dHIT:          0  dMISS:          0  itACCESS:          0  itHIT:          0  itMISS:          0  dtACCESS:          0  dtHIT:          0  dtMISS:          0
cpu0_L1I LOAD         ACCESS:   10384591  HIT:    8026709  MISS:    2357882  iACCESS:   10384591  iHIT:    8026709  iMISS:    2357882  dACCESS:          0  dHIT:          0  dMISS:          0  itACCESS:          0  itHIT:          0  itMISS:          0  dtACCESS:          0  dtHIT:          0  dtMISS:          0
cpu0_L1I RFO          ACCESS:          0  HIT:          0  MISS:          0  iACCESS:          0  iHIT:          0  iMISS:          0  dACCESS:          0  dHIT:          0  dMISS:          0  itACCESS:          0  itHIT:          0  itMISS:          0  dtACCESS:          0  dtHIT:          0  dtMISS:          0
cpu0_L1I PREFETCH     ACCESS:   25129962  HIT:   19044644  MISS:    6085318  iACCESS:   25129962  iHIT:   19044644  iMISS:    6085318  dACCESS:          0  dHIT:          0  dMISS:          0  itACCESS:          0  itHIT:          0  itMISS:          0  dtACCESS:          0  dtHIT:          0  dtMISS:          0
cpu0_L1I WRITE        ACCESS:          0  HIT:          0  MISS:          0  iACCESS:          0  iHIT:          0  iMISS:          0  dACCESS:          0  dHIT:          0  dMISS:          0  itACCESS:          0  itHIT:          0  itMISS:          0  dtACCESS:          0  dtHIT:          0  dtMISS:          0
cpu0_L1I TRANSLATION  ACCESS:          0  HIT:          0  MISS:          0  iACCESS:          0  iHIT:          0  iMISS:          0  dACCESS:          0  dHIT:          0  dMISS:          0  itACCESS:          0  itHIT:          0  itMISS:          0  dtACCESS:          0  dtHIT:          0  dtMISS:          0
cpu0_L1I PREFETCH  REQUESTED:   27418696  ISSUED:   27415513  CROSSED:          0  USEFUL:    1945682  USELESS:     630732
cpu0_L1I AVERAGE iMISS LATENCY: 13.6379 cycles
cpu0_L1I AVERAGE dMISS LATENCY: 0 cycles
cpu0_L1I AVERAGE itMISS LATENCY: 0 cycles
cpu0_L1I AVERAGE dtMISS LATENCY: 0 cycles
cpu0_L1I PAGE CROSSINGS (TLB HIT):         0 
cpu0_L1I PAGE CROSSINGS (TLB MISS):         0 
cpu0_L1I AVERAGE MISS LATENCY: 13.6379 cycles
cpu0_ITLB TOTAL       ACCESS:   29399990  HIT:   27465038  MISS:    1934952  iACCESS:   29399990  iHIT:   27465038  iMISS:    1934952  dACCESS:          0  dHIT:          0  dMISS:          0  itACCESS:          0  itHIT:          0  itMISS:          0  dtACCESS:          0  dtHIT:          0  dtMISS:          0
cpu0_ITLB LOAD         ACCESS:   29399990  HIT:   27465038  MISS:    1934952  iACCESS:   29399990  iHIT:   27465038  iMISS:    1934952  dACCESS:          0  dHIT:          0  dMISS:          0  itACCESS:          0  itHIT:          0  itMISS:          0  dtACCESS:          0  dtHIT:          0  dtMISS:          0
cpu0_ITLB RFO          ACCESS:          0  HIT:          0  MISS:          0  iACCESS:          0  iHIT:          0  iMISS:          0  dACCESS:          0  dHIT:          0  dMISS:          0  itACCESS:          0  itHIT:          0  itMISS:          0  dtACCESS:          0  dtHIT:          0  dtMISS:          0
cpu0_ITLB PREFETCH     ACCESS:          0  HIT:          0  MISS:          0  iACCESS:          0  iHIT:          0  iMISS:          0  dACCESS:          0  dHIT:          0  dMISS:          0  itACCESS:          0  itHIT:          0  itMISS:          0  dtACCESS:          0  dtHIT:          0  dtMISS:          0
cpu0_ITLB WRITE        ACCESS:          0  HIT:          0  MISS:          0  iACCESS:          0  iHIT:          0  iMISS:          0  dACCESS:          0  dHIT:          0  dMISS:          0  itACCESS:          0  itHIT:          0  itMISS:          0  dtACCESS:          0  dtHIT:          0  dtMISS:          0
cpu0_ITLB TRANSLATION  ACCESS:          0  HIT:          0  MISS:          0  iACCESS:          0  iHIT:          0  iMISS:          0  dACCESS:          0  dHIT:          0  dMISS:          0  itACCESS:          0  itHIT:          0  itMISS:          0  dtACCESS:          0  dtHIT:          0  dtMISS:          0
cpu0_ITLB PREFETCH  REQUESTED:          0  ISSUED:          0  CROSSED:          0  USEFUL:     317673  USELESS:      63995
cpu0_ITLB AVERAGE iMISS LATENCY: 3.13767 cycles
cpu0_ITLB AVERAGE dMISS LATENCY: 0 cycles
cpu0_ITLB AVERAGE itMISS LATENCY: 0 cycles
cpu0_ITLB AVERAGE dtMISS LATENCY: 0 cycles
cpu0_ITLB PAGE CROSSINGS (TLB HIT):         0 
cpu0_ITLB PAGE CROSSINGS (TLB MISS):         0 
cpu0_ITLB AVERAGE MISS LATENCY: 3.13767 cycles
cpu0_DTLB TOTAL       ACCESS:   27763672  HIT:   25737382  MISS:    2026290  iACCESS:          0  iHIT:          0  iMISS:          0  dACCESS:   27763672  dHIT:   25737382  dMISS:    2026290  itACCESS:          0  itHIT:          0  itMISS:          0  dtACCESS:          0  dtHIT:          0  dtMISS:          0
cpu0_DTLB LOAD         ACCESS:   27763672  HIT:   25737382  MISS:    2026290  iACCESS:          0  iHIT:          0  iMISS:          0  dACCESS:   27763672  dHIT:   25737382  dMISS:    2026290  itACCESS:          0  itHIT:          0  itMISS:          0  dtACCESS:          0  dtHIT:          0  dtMISS:          0
cpu0_DTLB RFO          ACCESS:          0  HIT:          0  MISS:          0  iACCESS:          0  iHIT:          0  iMISS:          0  dACCESS:          0  dHIT:          0  dMISS:          0  itACCESS:          0  itHIT:          0  itMISS:          0  dtACCESS:          0  dtHIT:          0  dtMISS:          0
cpu0_DTLB PREFETCH     ACCESS:          0  HIT:          0  MISS:          0  iACCESS:          0  iHIT:          0  iMISS:          0  dACCESS:          0  dHIT:          0  dMISS:          0  itACCESS:          0  itHIT:          0  itMISS:          0  dtACCESS:          0  dtHIT:          0  dtMISS:          0
cpu0_DTLB WRITE        ACCESS:          0  HIT:          0  MISS:          0  iACCESS:          0  iHIT:          0  iMISS:          0  dACCESS:          0  dHIT:          0  dMISS:          0  itACCESS:          0  itHIT:          0  itMISS:          0  dtACCESS:          0  dtHIT:          0  dtMISS:          0
cpu0_DTLB TRANSLATION  ACCESS:          0  HIT:          0  MISS:          0  iACCESS:          0  iHIT:          0  iMISS:          0  dACCESS:          0  dHIT:          0  dMISS:          0  itACCESS:          0  itHIT:          0  itMISS:          0  dtACCESS:          0  dtHIT:          0  dtMISS:          0
cpu0_DTLB PREFETCH  REQUESTED:          0  ISSUED:          0  CROSSED:          0  USEFUL:          0  USELESS:          0
cpu0_DTLB AVERAGE iMISS LATENCY: 0 cycles
cpu0_DTLB AVERAGE dMISS LATENCY: 10.3812 cycles
cpu0_DTLB AVERAGE itMISS LATENCY: 0 cycles
cpu0_DTLB AVERAGE dtMISS LATENCY: 0 cycles
cpu0_DTLB PAGE CROSSINGS (TLB HIT):         0 
cpu0_DTLB PAGE CROSSINGS (TLB MISS):         0 
cpu0_DTLB AVERAGE MISS LATENCY: 10.3812 cycles
cpu0_STLB TOTAL       ACCESS:    1634681  HIT:    1462770  MISS:     171911  iACCESS:     381681  iHIT:     321656  iMISS:      60025  dACCESS:    1253000  dHIT:    1141114  dMISS:     111886  itACCESS:          0  itHIT:          0  itMISS:          0  dtACCESS:          0  dtHIT:          0  dtMISS:          0
cpu0_STLB LOAD         ACCESS:    1634681  HIT:    1462770  MISS:     171911  iACCESS:     381681  iHIT:     321656  iMISS:      60025  dACCESS:    1253000  dHIT:    1141114  dMISS:     111886  itACCESS:          0  itHIT:          0  itMISS:          0  dtACCESS:          0  dtHIT:          0  dtMISS:          0
cpu0_STLB RFO          ACCESS:          0  HIT:          0  MISS:          0  iACCESS:          0  iHIT:          0  iMISS:          0  dACCESS:          0  dHIT:          0  dMISS:          0  itACCESS:          0  itHIT:          0  itMISS:          0  dtACCESS:          0  dtHIT:          0  dtMISS:          0
cpu0_STLB PREFETCH     ACCESS:          0  HIT:          0  MISS:          0  iACCESS:          0  iHIT:          0  iMISS:          0  dACCESS:          0  dHIT:          0  dMISS:          0  itACCESS:          0  itHIT:          0  itMISS:          0  dtACCESS:          0  dtHIT:          0  dtMISS:          0
cpu0_STLB WRITE        ACCESS:          0  HIT:          0  MISS:          0  iACCESS:          0  iHIT:          0  iMISS:          0  dACCESS:          0  dHIT:          0  dMISS:          0  itACCESS:          0  itHIT:          0  itMISS:          0  dtACCESS:          0  dtHIT:          0  dtMISS:          0
cpu0_STLB TRANSLATION  ACCESS:          0  HIT:          0  MISS:          0  iACCESS:          0  iHIT:          0  iMISS:          0  dACCESS:          0  dHIT:          0  dMISS:          0  itACCESS:          0  itHIT:          0  itMISS:          0  dtACCESS:          0  dtHIT:          0  dtMISS:          0
cpu0_STLB PREFETCH  REQUESTED:          0  ISSUED:          0  CROSSED:          0  USEFUL:          0  USELESS:          0
cpu0_STLB AVERAGE iMISS LATENCY: 17.7812 cycles
cpu0_STLB AVERAGE dMISS LATENCY: 64.3043 cycles
cpu0_STLB AVERAGE itMISS LATENCY: 0 cycles
cpu0_STLB AVERAGE dtMISS LATENCY: 0 cycles
cpu0_STLB PAGE CROSSINGS (TLB HIT):         0 
cpu0_STLB PAGE CROSSINGS (TLB MISS):         0 
cpu0_STLB AVERAGE MISS LATENCY: 82.0854 cycles
cpu0_L1D TOTAL       ACCESS:   41602582  HIT:   38058250  MISS:    3544332  iACCESS:          0  iHIT:          0  iMISS:          0  dACCESS:   41368644  dHIT:   38037538  dMISS:    3331106  itACCESS:      65015  itHIT:       9394  itMISS:      55621  dtACCESS:     168923  dtHIT:      11318  dtMISS:     157605
cpu0_L1D LOAD         ACCESS:   18965747  HIT:   17441748  MISS:    1523999  iACCESS:          0  iHIT:          0  iMISS:          0  dACCESS:   18965747  dHIT:   17441748  dMISS:    1523999  itACCESS:          0  itHIT:          0  itMISS:          0  dtACCESS:          0  dtHIT:          0  dtMISS:          0
cpu0_L1D RFO          ACCESS:          0  HIT:          0  MISS:          0  iACCESS:          0  iHIT:          0  iMISS:          0  dACCESS:          0  dHIT:          0  dMISS:          0  itACCESS:          0  itHIT:          0  itMISS:          0  dtACCESS:          0  dtHIT:          0  dtMISS:          0
cpu0_L1D PREFETCH     ACCESS:   12210107  HIT:   10828341  MISS:    1381766  iACCESS:          0  iHIT:          0  iMISS:          0  dACCESS:   12210107  dHIT:   10828341  dMISS:    1381766  itACCESS:          0  itHIT:          0  itMISS:          0  dtACCESS:          0  dtHIT:          0  dtMISS:          0
cpu0_L1D WRITE        ACCESS:   10192790  HIT:    9767449  MISS:     425341  iACCESS:          0  iHIT:          0  iMISS:          0  dACCESS:   10192790  dHIT:    9767449  dMISS:     425341  itACCESS:          0  itHIT:          0  itMISS:          0  dtACCESS:          0  dtHIT:          0  dtMISS:          0
cpu0_L1D TRANSLATION  ACCESS:     233938  HIT:      20712  MISS:     213226  iACCESS:          0  iHIT:          0  iMISS:          0  dACCESS:          0  dHIT:          0  dMISS:          0  itACCESS:      65015  itHIT:       9394  itMISS:      55621  dtACCESS:     168923  dtHIT:      11318  dtMISS:     157605
cpu0_L1D PREFETCH  REQUESTED:   18965747  ISSUED:   17012240  CROSSED:          0  USEFUL:     306354  USELESS:     705515
cpu0_L1D AVERAGE iMISS LATENCY: 0 cycles
cpu0_L1D AVERAGE dMISS LATENCY: 33.6839 cycles
cpu0_L1D AVERAGE itMISS LATENCY: 0.716602 cycles
cpu0_L1D AVERAGE dtMISS LATENCY: 2.47096 cycles
cpu0_L1D PAGE CROSSINGS (TLB HIT):         0 
cpu0_L1D PAGE CROSSINGS (TLB MISS):         0 
cpu0_L1D AVERAGE MISS LATENCY: 36.8715 cycles
cpu0_L2C TOTAL       ACCESS:    7037603  HIT:    1652017  MISS:    5385586  iACCESS:    3316055  iHIT:     832322  iMISS:    2483733  dACCESS:    3518461  dHIT:     701773  dMISS:    2816688  itACCESS:      55621  itHIT:      39494  itMISS:      16127  dtACCESS:     147466  dtHIT:      78428  dtMISS:      69038
cpu0_L2C LOAD         ACCESS:    1710286  HIT:     276162  MISS:    1434124  iACCESS:     777323  iHIT:     130681  iMISS:     646642  dACCESS:     932963  dHIT:     145481  dMISS:     787482  itACCESS:          0  itHIT:          0  itMISS:          0  dtACCESS:          0  dtHIT:          0  dtMISS:          0
cpu0_L2C RFO          ACCESS:     159955  HIT:      52885  MISS:     107070  iACCESS:          0  iHIT:          0  iMISS:          0  dACCESS:     159955  dHIT:      52885  dMISS:     107070  itACCESS:          0  itHIT:          0  itMISS:          0  dtACCESS:          0  dtHIT:          0  dtMISS:          0
cpu0_L2C PREFETCH     ACCESS:    4681464  HIT:    1070038  MISS:    3611426  iACCESS:    2538732  iHIT:     701641  iMISS:    1837091  dACCESS:    2142732  dHIT:     368397  dMISS:    1774335  itACCESS:          0  itHIT:          0  itMISS:          0  dtACCESS:          0  dtHIT:          0  dtMISS:          0
cpu0_L2C WRITE        ACCESS:     282811  HIT:     135010  MISS:     147801  iACCESS:          0  iHIT:          0  iMISS:          0  dACCESS:     282811  dHIT:     135010  dMISS:     147801  itACCESS:          0  itHIT:          0  itMISS:          0  dtACCESS:          0  dtHIT:          0  dtMISS:          0
cpu0_L2C TRANSLATION  ACCESS:     203087  HIT:     117922  MISS:      85165  iACCESS:          0  iHIT:          0  iMISS:          0  dACCESS:          0  dHIT:          0  dMISS:          0  itACCESS:      55621  itHIT:      39494  itMISS:      16127  dtACCESS:     147466  dtHIT:      78428  dtMISS:      69038
cpu0_L2C PREFETCH  REQUESTED:    1391924  ISSUED:    1391924  CROSSED:          0  USEFUL:     409838  USELESS:     381538
cpu0_L2C AVERAGE iMISS LATENCY: 15.637 cycles
cpu0_L2C AVERAGE dMISS LATENCY: 26.0376 cycles
cpu0_L2C AVERAGE itMISS LATENCY: 0.3754 cycles
cpu0_L2C AVERAGE dtMISS LATENCY: 1.36535 cycles
cpu0_L2C PAGE CROSSINGS (TLB HIT):         0 
cpu0_L2C PAGE CROSSINGS (TLB MISS):         0 
cpu0_L2C AVERAGE MISS LATENCY: 43.4153 cycles
LLC TOTAL       ACCESS:    5261691  HIT:    4393999  MISS:     867692  iACCESS:    2425668  iHIT:    2167982  iMISS:     257686  dACCESS:    2750858  dHIT:    2184238  dMISS:     566620  itACCESS:      16127  itHIT:       6269  itMISS:       9858  dtACCESS:      69038  dtHIT:      35510  dtMISS:      33528
LLC LOAD         ACCESS:    1431517  HIT:    1237013  MISS:     194504  iACCESS:     645124  iHIT:     590324  iMISS:      54800  dACCESS:     786393  dHIT:     646689  dMISS:     139704  itACCESS:          0  itHIT:          0  itMISS:          0  dtACCESS:          0  dtHIT:          0  dtMISS:          0
LLC RFO          ACCESS:     107067  HIT:      72138  MISS:      34929  iACCESS:          0  iHIT:          0  iMISS:          0  dACCESS:     107067  dHIT:      72138  dMISS:      34929  itACCESS:          0  itHIT:          0  itMISS:          0  dtACCESS:          0  dtHIT:          0  dtMISS:          0
LLC PREFETCH     ACCESS:    3496760  HIT:    2910681  MISS:     586079  iACCESS:    1780544  iHIT:    1577658  iMISS:     202886  dACCESS:    1716216  dHIT:    1333023  dMISS:     383193  itACCESS:          0  itHIT:          0  itMISS:          0  dtACCESS:          0  dtHIT:          0  dtMISS:          0
LLC WRITE        ACCESS:     141182  HIT:     132388  MISS:       8794  iACCESS:          0  iHIT:          0  iMISS:          0  dACCESS:     141182  dHIT:     132388  dMISS:       8794  itACCESS:          0  itHIT:          0  itMISS:          0  dtACCESS:          0  dtHIT:          0  dtMISS:          0
LLC TRANSLATION  ACCESS:      85165  HIT:      41779  MISS:      43386  iACCESS:          0  iHIT:          0  iMISS:          0  dACCESS:          0  dHIT:          0  dMISS:          0  itACCESS:      16127  itHIT:       6269  itMISS:       9858  dtACCESS:      69038  dtHIT:      35510  dtMISS:      33528
LLC PREFETCH  REQUESTED:          0  ISSUED:          0  CROSSED:          0  USEFUL:          0  USELESS:          0
LLC AVERAGE iMISS LATENCY: 43.1038 cycles
LLC AVERAGE dMISS LATENCY: 103.59 cycles
LLC AVERAGE itMISS LATENCY: 1.96629 cycles
LLC AVERAGE dtMISS LATENCY: 6.9254 cycles
LLC PAGE CROSSINGS (TLB HIT):         0 
LLC PAGE CROSSINGS (TLB MISS):         0 
LLC AVERAGE MISS LATENCY: 155.585 cycles

PageTableWalker TOTAL       ACCESS:      87151  
PageTableWalker AVERAGE LATENCY: 4.57376 cycles
PageTableWalker TOTAL LATENCY: 398607 cycles

DRAM Statistics
Channel 0
 RQ ROW_BUFFER_HIT:     247140
  ROW_BUFFER_MISS:     611096
 AVG DBUS CONGESTED CYCLE:     3.6239
 WQ ROW_BUFFER_HIT:      16299
  ROW_BUFFER_MISS:      21970  FULL:          0

