last_page:0x200000000000000
VMEM_RES_CAP:0x100000
PAGE_SIZE:4096
LOG2_PAGE_SIZE:12
LOG2_PAGE_TABLE_SIZE:9
page_table_levels:5
WARNING: physical memory size is smaller than virtual memory size
FDiP enabled with aggresivity 16

*** ChampSim Multicore Out-of-Order Simulator ***

Warmup Instructions: 50000000
Simulation Instructions: 100000000
Number of CPUs: 1
Small page size: 4096
Large page size: 2097152

CPU 0 Bimodal branch predictor
Basic BTB sets: 1024 ways: 8 indirect buffer size: 4096 RAS size: 64
Instruction page size distrubution: 0
Loading instruction page size distribution from /home/bsc/bsc018186/scratch/itp_asplos25_AE/dump/srv612_ap.pdst
Data page size distrubution: 0
Loading data page size distribution from /home/bsc/bsc018186/scratch/itp_asplos25_AE/dump/srv612_ap.pdst
cpu0_L2C IP-based stride prefetcher
cpu0_L2C is using PTP replacement policy:
	TLB_STRESS_THRESHOLD:0
	PTE_EVICTION_RATIO:0
cpu0_L1D next line prefetcher
cpu0_STLB using iTP with max lru@8
cpu0_STLB using iTP with instr@0 and data@2
Init sat counter with 3 bits (max:50).
cpu0_L1I next line prefetcher
Off-chip DRAM Size: 4 GiB Channels: 1 Width: 64-bit Data Rate: 3200 MT/s
Heartbeat CPU 0 instructions: 10000003 cycles: 2781437 heartbeat IPC: 3.59527 cumulative IPC: 3.59527 (Simulation time: 0 hr 0 min 40 sec) 
Heartbeat CPU 0 instructions: 20000001 cycles: 5759486 heartbeat IPC: 3.35791 cumulative IPC: 3.47254 (Simulation time: 0 hr 1 min 22 sec) 
Heartbeat CPU 0 instructions: 30000004 cycles: 8545584 heartbeat IPC: 3.58926 cumulative IPC: 3.51059 (Simulation time: 0 hr 1 min 58 sec) 
Heartbeat CPU 0 instructions: 40000000 cycles: 11194436 heartbeat IPC: 3.77522 cumulative IPC: 3.57321 (Simulation time: 0 hr 2 min 34 sec) 
Heartbeat CPU 0 instructions: 50000000 cycles: 13718777 heartbeat IPC: 3.96143 cumulative IPC: 3.64464 (Simulation time: 0 hr 3 min 10 sec) 
Warmup finished CPU 0 instructions: 50000000 cycles: 13718778 cumulative IPC: 3.64464 (Simulation time: 0 hr 3 min 10 sec) 

Warmup complete CPU 0 instructions: 50000000 cycles: 13718778 (Simulation time: 0 hr 3 min 10 sec) 

Heartbeat CPU 0 instructions: 60000001 cycles: 55651775 heartbeat IPC: 0.238476 cumulative IPC: 0.238476 (Simulation time: 0 hr 5 min 21 sec) 
Heartbeat CPU 0 instructions: 70000004 cycles: 110342679 heartbeat IPC: 0.182846 cumulative IPC: 0.206989 (Simulation time: 0 hr 8 min 7 sec) 
Heartbeat CPU 0 instructions: 80000000 cycles: 143590159 heartbeat IPC: 0.300775 cumulative IPC: 0.230998 (Simulation time: 0 hr 9 min 55 sec) 
Heartbeat CPU 0 instructions: 90000003 cycles: 172461711 heartbeat IPC: 0.346362 cumulative IPC: 0.25198 (Simulation time: 0 hr 11 min 32 sec) 
Heartbeat CPU 0 instructions: 100000001 cycles: 195590610 heartbeat IPC: 0.43236 cumulative IPC: 0.274919 (Simulation time: 0 hr 12 min 57 sec) 
*** Reached end of trace: /gpfs/projects/bsc18/MN4/bsc18/romol/ChampSim/traces/qualcomm_srv/srv612_ap.champsimtrace.xz
Heartbeat CPU 0 instructions: 110000000 cycles: 209729983 heartbeat IPC: 0.707245 cumulative IPC: 0.306105 (Simulation time: 0 hr 14 min 6 sec) 
Heartbeat CPU 0 instructions: 120000004 cycles: 219050413 heartbeat IPC: 1.07292 cumulative IPC: 0.340912 (Simulation time: 0 hr 15 min 5 sec) 
Heartbeat CPU 0 instructions: 130000004 cycles: 227299499 heartbeat IPC: 1.21226 cumulative IPC: 0.374566 (Simulation time: 0 hr 15 min 59 sec) 
Heartbeat CPU 0 instructions: 140000000 cycles: 234954906 heartbeat IPC: 1.30627 cumulative IPC: 0.406806 (Simulation time: 0 hr 16 min 47 sec) 
Heartbeat CPU 0 instructions: 150000000 cycles: 255906192 heartbeat IPC: 0.477298 cumulative IPC: 0.412904 (Simulation time: 0 hr 18 min 3 sec) 
Simulation finished CPU 0 instructions: 100000000 cycles: 242187415 cumulative IPC: 0.412904 (Simulation time: 0 hr 18 min 3 sec) 

Simulation complete CPU 0 instructions: 100000000 cycles: 242187415 (Simulation time: 0 hr 18 min 3 sec) 


ChampSim completed all CPUs

Saving instructions large page distribution to /home/bsc/bsc018186/scratch/itp_asplos25_AE/dump/srv612_ap.pdst...
Saving data large page distribution to /home/bsc/bsc018186/scratch/itp_asplos25_AE/dump/srv612_ap.pdst...
=== Simulation ===
CPU 0 runs /gpfs/projects/bsc18/MN4/bsc18/romol/ChampSim/traces/qualcomm_srv/srv612_ap.champsimtrace.xz

Region of Interest Statistics

CPU 0 cumulative IPC: 0.412904 instructions: 100000000 cycles: 242187415
CPU 0 Branch Prediction Accuracy: 96.6997% MPKI: 7.15989 Average ROB Occupancy at Mispredict: 86.5859
Branch type MPKI
BRANCH_DIRECT_JUMP: 0.0386401
BRANCH_INDIRECT: 3.27509
BRANCH_CONDITIONAL: 3.54837
BRANCH_DIRECT_CALL: 0.0661401
BRANCH_INDIRECT_CALL: 0.173461
BRANCH_RETURN: 0.0582001

Instructions large pages: 0
Instructions small pages: 1273
Large page distribution for instructions: 0%

Data large pages: 0
Data small pages: 21910
Large page distribution for data: 0%

cpu0_L1I TOTAL       ACCESS:   15118612  HIT:   14639160  MISS:     479452  iACCESS:   15118612  iHIT:   14639160  iMISS:     479452  dACCESS:          0  dHIT:          0  dMISS:          0  itACCESS:          0  itHIT:          0  itMISS:          0  dtACCESS:          0  dtHIT:          0  dtMISS:          0
cpu0_L1I LOAD         ACCESS:     881531  HIT:     737415  MISS:     144116  iACCESS:     881531  iHIT:     737415  iMISS:     144116  dACCESS:          0  dHIT:          0  dMISS:          0  itACCESS:          0  itHIT:          0  itMISS:          0  dtACCESS:          0  dtHIT:          0  dtMISS:          0
cpu0_L1I RFO          ACCESS:          0  HIT:          0  MISS:          0  iACCESS:          0  iHIT:          0  iMISS:          0  dACCESS:          0  dHIT:          0  dMISS:          0  itACCESS:          0  itHIT:          0  itMISS:          0  dtACCESS:          0  dtHIT:          0  dtMISS:          0
cpu0_L1I PREFETCH     ACCESS:   14237081  HIT:   13901745  MISS:     335336  iACCESS:   14237081  iHIT:   13901745  iMISS:     335336  dACCESS:          0  dHIT:          0  dMISS:          0  itACCESS:          0  itHIT:          0  itMISS:          0  dtACCESS:          0  dtHIT:          0  dtMISS:          0
cpu0_L1I WRITE        ACCESS:          0  HIT:          0  MISS:          0  iACCESS:          0  iHIT:          0  iMISS:          0  dACCESS:          0  dHIT:          0  dMISS:          0  itACCESS:          0  itHIT:          0  itMISS:          0  dtACCESS:          0  dtHIT:          0  dtMISS:          0
cpu0_L1I TRANSLATION  ACCESS:          0  HIT:          0  MISS:          0  iACCESS:          0  iHIT:          0  iMISS:          0  dACCESS:          0  dHIT:          0  dMISS:          0  itACCESS:          0  itHIT:          0  itMISS:          0  dtACCESS:          0  dtHIT:          0  dtMISS:          0
cpu0_L1I PREFETCH  REQUESTED:   14440429  ISSUED:   14436035  CROSSED:          0  USEFUL:      95457  USELESS:      35716
cpu0_L1I AVERAGE iMISS LATENCY: 20.4048 cycles
cpu0_L1I AVERAGE dMISS LATENCY: 0 cycles
cpu0_L1I AVERAGE itMISS LATENCY: 0 cycles
cpu0_L1I AVERAGE dtMISS LATENCY: 0 cycles
cpu0_L1I PAGE CROSSINGS (TLB HIT):         0 
cpu0_L1I PAGE CROSSINGS (TLB MISS):         0 
cpu0_L1I AVERAGE MISS LATENCY: 20.4048 cycles
cpu0_ITLB TOTAL       ACCESS:   13532624  HIT:   13410932  MISS:     121692  iACCESS:   13532624  iHIT:   13410932  iMISS:     121692  dACCESS:          0  dHIT:          0  dMISS:          0  itACCESS:          0  itHIT:          0  itMISS:          0  dtACCESS:          0  dtHIT:          0  dtMISS:          0
cpu0_ITLB LOAD         ACCESS:   13532624  HIT:   13410932  MISS:     121692  iACCESS:   13532624  iHIT:   13410932  iMISS:     121692  dACCESS:          0  dHIT:          0  dMISS:          0  itACCESS:          0  itHIT:          0  itMISS:          0  dtACCESS:          0  dtHIT:          0  dtMISS:          0
cpu0_ITLB RFO          ACCESS:          0  HIT:          0  MISS:          0  iACCESS:          0  iHIT:          0  iMISS:          0  dACCESS:          0  dHIT:          0  dMISS:          0  itACCESS:          0  itHIT:          0  itMISS:          0  dtACCESS:          0  dtHIT:          0  dtMISS:          0
cpu0_ITLB PREFETCH     ACCESS:          0  HIT:          0  MISS:          0  iACCESS:          0  iHIT:          0  iMISS:          0  dACCESS:          0  dHIT:          0  dMISS:          0  itACCESS:          0  itHIT:          0  itMISS:          0  dtACCESS:          0  dtHIT:          0  dtMISS:          0
cpu0_ITLB WRITE        ACCESS:          0  HIT:          0  MISS:          0  iACCESS:          0  iHIT:          0  iMISS:          0  dACCESS:          0  dHIT:          0  dMISS:          0  itACCESS:          0  itHIT:          0  itMISS:          0  dtACCESS:          0  dtHIT:          0  dtMISS:          0
cpu0_ITLB TRANSLATION  ACCESS:          0  HIT:          0  MISS:          0  iACCESS:          0  iHIT:          0  iMISS:          0  dACCESS:          0  dHIT:          0  dMISS:          0  itACCESS:          0  itHIT:          0  itMISS:          0  dtACCESS:          0  dtHIT:          0  dtMISS:          0
cpu0_ITLB PREFETCH  REQUESTED:          0  ISSUED:          0  CROSSED:          0  USEFUL:      16448  USELESS:       4138
cpu0_ITLB AVERAGE iMISS LATENCY: 6.22996 cycles
cpu0_ITLB AVERAGE dMISS LATENCY: 0 cycles
cpu0_ITLB AVERAGE itMISS LATENCY: 0 cycles
cpu0_ITLB AVERAGE dtMISS LATENCY: 0 cycles
cpu0_ITLB PAGE CROSSINGS (TLB HIT):         0 
cpu0_ITLB PAGE CROSSINGS (TLB MISS):         0 
cpu0_ITLB AVERAGE MISS LATENCY: 6.22996 cycles
cpu0_DTLB TOTAL       ACCESS:   27386814  HIT:   22624334  MISS:    4762480  iACCESS:          0  iHIT:          0  iMISS:          0  dACCESS:   27386814  dHIT:   22624334  dMISS:    4762480  itACCESS:          0  itHIT:          0  itMISS:          0  dtACCESS:          0  dtHIT:          0  dtMISS:          0
cpu0_DTLB LOAD         ACCESS:   27386814  HIT:   22624334  MISS:    4762480  iACCESS:          0  iHIT:          0  iMISS:          0  dACCESS:   27386814  dHIT:   22624334  dMISS:    4762480  itACCESS:          0  itHIT:          0  itMISS:          0  dtACCESS:          0  dtHIT:          0  dtMISS:          0
cpu0_DTLB RFO          ACCESS:          0  HIT:          0  MISS:          0  iACCESS:          0  iHIT:          0  iMISS:          0  dACCESS:          0  dHIT:          0  dMISS:          0  itACCESS:          0  itHIT:          0  itMISS:          0  dtACCESS:          0  dtHIT:          0  dtMISS:          0
cpu0_DTLB PREFETCH     ACCESS:          0  HIT:          0  MISS:          0  iACCESS:          0  iHIT:          0  iMISS:          0  dACCESS:          0  dHIT:          0  dMISS:          0  itACCESS:          0  itHIT:          0  itMISS:          0  dtACCESS:          0  dtHIT:          0  dtMISS:          0
cpu0_DTLB WRITE        ACCESS:          0  HIT:          0  MISS:          0  iACCESS:          0  iHIT:          0  iMISS:          0  dACCESS:          0  dHIT:          0  dMISS:          0  itACCESS:          0  itHIT:          0  itMISS:          0  dtACCESS:          0  dtHIT:          0  dtMISS:          0
cpu0_DTLB TRANSLATION  ACCESS:          0  HIT:          0  MISS:          0  iACCESS:          0  iHIT:          0  iMISS:          0  dACCESS:          0  dHIT:          0  dMISS:          0  itACCESS:          0  itHIT:          0  itMISS:          0  dtACCESS:          0  dtHIT:          0  dtMISS:          0
cpu0_DTLB PREFETCH  REQUESTED:          0  ISSUED:          0  CROSSED:          0  USEFUL:          0  USELESS:          0
cpu0_DTLB AVERAGE iMISS LATENCY: 0 cycles
cpu0_DTLB AVERAGE dMISS LATENCY: 6.9858 cycles
cpu0_DTLB AVERAGE itMISS LATENCY: 0 cycles
cpu0_DTLB AVERAGE dtMISS LATENCY: 0 cycles
cpu0_DTLB PAGE CROSSINGS (TLB HIT):         0 
cpu0_DTLB PAGE CROSSINGS (TLB MISS):         0 
cpu0_DTLB AVERAGE MISS LATENCY: 6.9858 cycles
cpu0_STLB TOTAL       ACCESS:    2950895  HIT:    2833012  MISS:     117883  iACCESS:      20585  iHIT:      14498  iMISS:       6087  dACCESS:    2930310  dHIT:    2818514  dMISS:     111796  itACCESS:          0  itHIT:          0  itMISS:          0  dtACCESS:          0  dtHIT:          0  dtMISS:          0
cpu0_STLB LOAD         ACCESS:    2950895  HIT:    2833012  MISS:     117883  iACCESS:      20585  iHIT:      14498  iMISS:       6087  dACCESS:    2930310  dHIT:    2818514  dMISS:     111796  itACCESS:          0  itHIT:          0  itMISS:          0  dtACCESS:          0  dtHIT:          0  dtMISS:          0
cpu0_STLB RFO          ACCESS:          0  HIT:          0  MISS:          0  iACCESS:          0  iHIT:          0  iMISS:          0  dACCESS:          0  dHIT:          0  dMISS:          0  itACCESS:          0  itHIT:          0  itMISS:          0  dtACCESS:          0  dtHIT:          0  dtMISS:          0
cpu0_STLB PREFETCH     ACCESS:          0  HIT:          0  MISS:          0  iACCESS:          0  iHIT:          0  iMISS:          0  dACCESS:          0  dHIT:          0  dMISS:          0  itACCESS:          0  itHIT:          0  itMISS:          0  dtACCESS:          0  dtHIT:          0  dtMISS:          0
cpu0_STLB WRITE        ACCESS:          0  HIT:          0  MISS:          0  iACCESS:          0  iHIT:          0  iMISS:          0  dACCESS:          0  dHIT:          0  dMISS:          0  itACCESS:          0  itHIT:          0  itMISS:          0  dtACCESS:          0  dtHIT:          0  dtMISS:          0
cpu0_STLB TRANSLATION  ACCESS:          0  HIT:          0  MISS:          0  iACCESS:          0  iHIT:          0  iMISS:          0  dACCESS:          0  dHIT:          0  dMISS:          0  itACCESS:          0  itHIT:          0  itMISS:          0  dtACCESS:          0  dtHIT:          0  dtMISS:          0
cpu0_STLB PREFETCH  REQUESTED:          0  ISSUED:          0  CROSSED:          0  USEFUL:          0  USELESS:          0
cpu0_STLB AVERAGE iMISS LATENCY: 5.02192 cycles
cpu0_STLB AVERAGE dMISS LATENCY: 80.0481 cycles
cpu0_STLB AVERAGE itMISS LATENCY: 0 cycles
cpu0_STLB AVERAGE dtMISS LATENCY: 0 cycles
cpu0_STLB PAGE CROSSINGS (TLB HIT):         0 
cpu0_STLB PAGE CROSSINGS (TLB MISS):         0 
cpu0_STLB AVERAGE MISS LATENCY: 85.07 cycles
cpu0_L1D TOTAL       ACCESS:  160212509  HIT:   31962974  MISS:  128249535  iACCESS:          0  iHIT:          0  iMISS:          0  dACCESS:  159766923  dHIT:   31934003  dMISS:  127832920  itACCESS:       6683  itHIT:       1690  itMISS:       4993  dtACCESS:     438903  dtHIT:      27281  dtMISS:     411622
cpu0_L1D LOAD         ACCESS:   70702096  HIT:   16677932  MISS:   54024164  iACCESS:          0  iHIT:          0  iMISS:          0  dACCESS:   70702096  dHIT:   16677932  dMISS:   54024164  itACCESS:          0  itHIT:          0  itMISS:          0  dtACCESS:          0  dtHIT:          0  dtMISS:          0
cpu0_L1D RFO          ACCESS:          0  HIT:          0  MISS:          0  iACCESS:          0  iHIT:          0  iMISS:          0  dACCESS:          0  dHIT:          0  dMISS:          0  itACCESS:          0  itHIT:          0  itMISS:          0  dtACCESS:          0  dtHIT:          0  dtMISS:          0
cpu0_L1D PREFETCH     ACCESS:   82518929  HIT:    9846739  MISS:   72672190  iACCESS:          0  iHIT:          0  iMISS:          0  dACCESS:   82518929  dHIT:    9846739  dMISS:   72672190  itACCESS:          0  itHIT:          0  itMISS:          0  dtACCESS:          0  dtHIT:          0  dtMISS:          0
cpu0_L1D WRITE        ACCESS:    6545898  HIT:    5409332  MISS:    1136566  iACCESS:          0  iHIT:          0  iMISS:          0  dACCESS:    6545898  dHIT:    5409332  dMISS:    1136566  itACCESS:          0  itHIT:          0  itMISS:          0  dtACCESS:          0  dtHIT:          0  dtMISS:          0
cpu0_L1D TRANSLATION  ACCESS:     445586  HIT:      28971  MISS:     416615  iACCESS:          0  iHIT:          0  iMISS:          0  dACCESS:          0  dHIT:          0  dMISS:          0  itACCESS:       6683  itHIT:       1690  itMISS:       4993  dtACCESS:     438903  dtHIT:      27281  dtMISS:     411622
cpu0_L1D PREFETCH  REQUESTED:   70702096  ISSUED:   28919449  CROSSED:          0  USEFUL:     167405  USELESS:    1281732
cpu0_L1D AVERAGE iMISS LATENCY: 0 cycles
cpu0_L1D AVERAGE dMISS LATENCY: 17.3509 cycles
cpu0_L1D AVERAGE itMISS LATENCY: 0.00410772 cycles
cpu0_L1D AVERAGE dtMISS LATENCY: 0.0464691 cycles
cpu0_L1D PAGE CROSSINGS (TLB HIT):         0 
cpu0_L1D PAGE CROSSINGS (TLB MISS):         0 
cpu0_L1D AVERAGE MISS LATENCY: 17.4015 cycles
cpu0_L2C TOTAL       ACCESS:    6201974  HIT:    1143615  MISS:    5058359  iACCESS:     172571  iHIT:      59108  iMISS:     113463  dACCESS:    5956345  dHIT:    1065011  dMISS:    4891334  itACCESS:       4830  itHIT:       1848  itMISS:       2982  dtACCESS:      68228  dtHIT:      17648  dtMISS:      50580
cpu0_L2C LOAD         ACCESS:    3855322  HIT:     784087  MISS:    3071235  iACCESS:      42811  iHIT:      13339  iMISS:      29472  dACCESS:    3812511  dHIT:     770748  dMISS:    3041763  itACCESS:          0  itHIT:          0  itMISS:          0  dtACCESS:          0  dtHIT:          0  dtMISS:          0
cpu0_L2C RFO          ACCESS:     114126  HIT:      25445  MISS:      88681  iACCESS:          0  iHIT:          0  iMISS:          0  dACCESS:     114126  dHIT:      25445  dMISS:      88681  itACCESS:          0  itHIT:          0  itMISS:          0  dtACCESS:          0  dtHIT:          0  dtMISS:          0
cpu0_L2C PREFETCH     ACCESS:    2051546  HIT:     265600  MISS:    1785946  iACCESS:     129760  iHIT:      45769  iMISS:      83991  dACCESS:    1921786  dHIT:     219831  dMISS:    1701955  itACCESS:          0  itHIT:          0  itMISS:          0  dtACCESS:          0  dtHIT:          0  dtMISS:          0
cpu0_L2C WRITE        ACCESS:     107922  HIT:      48987  MISS:      58935  iACCESS:          0  iHIT:          0  iMISS:          0  dACCESS:     107922  dHIT:      48987  dMISS:      58935  itACCESS:          0  itHIT:          0  itMISS:          0  dtACCESS:          0  dtHIT:          0  dtMISS:          0
cpu0_L2C TRANSLATION  ACCESS:      73058  HIT:      19496  MISS:      53562  iACCESS:          0  iHIT:          0  iMISS:          0  dACCESS:          0  dHIT:          0  dMISS:          0  itACCESS:       4830  itHIT:       1848  itMISS:       2982  dtACCESS:      68228  dtHIT:      17648  dtMISS:      50580
cpu0_L2C PREFETCH  REQUESTED:     493042  ISSUED:     492026  CROSSED:          0  USEFUL:      67588  USELESS:     224681
cpu0_L2C AVERAGE iMISS LATENCY: 1.63106 cycles
cpu0_L2C AVERAGE dMISS LATENCY: 438.409 cycles
cpu0_L2C AVERAGE itMISS LATENCY: 0.0949306 cycles
cpu0_L2C AVERAGE dtMISS LATENCY: 1.04516 cycles
cpu0_L2C PAGE CROSSINGS (TLB HIT):         0 
cpu0_L2C PAGE CROSSINGS (TLB MISS):         0 
cpu0_L2C AVERAGE MISS LATENCY: 441.18 cycles
LLC TOTAL       ACCESS:    4862948  HIT:    2651680  MISS:    2211268  iACCESS:     111026  iHIT:      78410  iMISS:      32616  dACCESS:    4698360  dHIT:    2533299  dMISS:    2165061  itACCESS:       2982  itHIT:        921  itMISS:       2061  dtACCESS:      50580  dtHIT:      39050  dtMISS:      11530
LLC LOAD         ACCESS:    3068331  HIT:    1927640  MISS:    1140691  iACCESS:      29425  iHIT:      22225  iMISS:       7200  dACCESS:    3038906  dHIT:    1905415  dMISS:    1133491  itACCESS:          0  itHIT:          0  itMISS:          0  dtACCESS:          0  dtHIT:          0  dtMISS:          0
LLC RFO          ACCESS:      88666  HIT:       8345  MISS:      80321  iACCESS:          0  iHIT:          0  iMISS:          0  dACCESS:      88666  dHIT:       8345  dMISS:      80321  itACCESS:          0  itHIT:          0  itMISS:          0  dtACCESS:          0  dtHIT:          0  dtMISS:          0
LLC PREFETCH     ACCESS:    1558703  HIT:     582984  MISS:     975719  iACCESS:      81601  iHIT:      56185  iMISS:      25416  dACCESS:    1477102  dHIT:     526799  dMISS:     950303  itACCESS:          0  itHIT:          0  itMISS:          0  dtACCESS:          0  dtHIT:          0  dtMISS:          0
LLC WRITE        ACCESS:      93686  HIT:      92740  MISS:        946  iACCESS:          0  iHIT:          0  iMISS:          0  dACCESS:      93686  dHIT:      92740  dMISS:        946  itACCESS:          0  itHIT:          0  itMISS:          0  dtACCESS:          0  dtHIT:          0  dtMISS:          0
LLC TRANSLATION  ACCESS:      53562  HIT:      39971  MISS:      13591  iACCESS:          0  iHIT:          0  iMISS:          0  dACCESS:          0  dHIT:          0  dMISS:          0  itACCESS:       2982  itHIT:        921  itMISS:       2061  dtACCESS:      50580  dtHIT:      39050  dtMISS:      11530
LLC PREFETCH  REQUESTED:          0  ISSUED:          0  CROSSED:          0  USEFUL:          0  USELESS:          0
LLC AVERAGE iMISS LATENCY: 2.75588 cycles
LLC AVERAGE dMISS LATENCY: 962.713 cycles
LLC AVERAGE itMISS LATENCY: 0.190711 cycles
LLC AVERAGE dtMISS LATENCY: 1.94884 cycles
LLC PAGE CROSSINGS (TLB HIT):         0 
LLC PAGE CROSSINGS (TLB MISS):         0 
LLC AVERAGE MISS LATENCY: 967.609 cycles

PageTableWalker TOTAL       ACCESS:      30551  
PageTableWalker AVERAGE LATENCY: 3.23545 cycles
PageTableWalker TOTAL LATENCY: 98846 cycles

DRAM Statistics
Channel 0
 RQ ROW_BUFFER_HIT:     391560
  ROW_BUFFER_MISS:    1815985
 AVG DBUS CONGESTED CYCLE:    3.88019
 WQ ROW_BUFFER_HIT:      12186
  ROW_BUFFER_MISS:      69804  FULL:          0

