last_page:0x200000000000000
VMEM_RES_CAP:0x100000
PAGE_SIZE:4096
LOG2_PAGE_SIZE:12
LOG2_PAGE_TABLE_SIZE:9
page_table_levels:5
WARNING: physical memory size is smaller than virtual memory size
FDiP enabled with aggresivity 16

*** ChampSim Multicore Out-of-Order Simulator ***

Warmup Instructions: 50000000
Simulation Instructions: 100000000
Number of CPUs: 1
Small page size: 4096
Large page size: 2097152

CPU 0 Bimodal branch predictor
Basic BTB sets: 1024 ways: 8 indirect buffer size: 4096 RAS size: 64
Instruction page size distrubution: 0
Loading instruction page size distribution from /home/bsc/bsc018186/scratch/itp_asplos25_AE/dump/srv642_ap.pdst
Data page size distrubution: 0
Loading data page size distribution from /home/bsc/bsc018186/scratch/itp_asplos25_AE/dump/srv642_ap.pdst
cpu0_L2C IP-based stride prefetcher
cpu0_L1D next line prefetcher
CHiRPing...
cpu0_L1I next line prefetcher
Off-chip DRAM Size: 4 GiB Channels: 1 Width: 64-bit Data Rate: 3200 MT/s
Heartbeat CPU 0 instructions: 10000000 cycles: 2500257 heartbeat IPC: 3.99959 cumulative IPC: 3.99959 (Simulation time: 0 hr 0 min 39 sec) 
Heartbeat CPU 0 instructions: 20000000 cycles: 5000275 heartbeat IPC: 3.99998 cumulative IPC: 3.99979 (Simulation time: 0 hr 1 min 20 sec) 
Heartbeat CPU 0 instructions: 30000002 cycles: 7500287 heartbeat IPC: 3.99999 cumulative IPC: 3.99985 (Simulation time: 0 hr 2 min 1 sec) 
Heartbeat CPU 0 instructions: 40000002 cycles: 10000352 heartbeat IPC: 3.9999 cumulative IPC: 3.99986 (Simulation time: 0 hr 2 min 43 sec) 
Heartbeat CPU 0 instructions: 50000001 cycles: 12500356 heartbeat IPC: 4 cumulative IPC: 3.99989 (Simulation time: 0 hr 3 min 24 sec) 
Warmup finished CPU 0 instructions: 50000001 cycles: 12500357 cumulative IPC: 3.99989 (Simulation time: 0 hr 3 min 24 sec) 

Warmup complete CPU 0 instructions: 50000001 cycles: 12500357 (Simulation time: 0 hr 3 min 24 sec) 

Heartbeat CPU 0 instructions: 60000002 cycles: 28362962 heartbeat IPC: 0.630414 cumulative IPC: 0.630414 (Simulation time: 0 hr 4 min 31 sec) 
Heartbeat CPU 0 instructions: 70000000 cycles: 44330332 heartbeat IPC: 0.626278 cumulative IPC: 0.628339 (Simulation time: 0 hr 5 min 38 sec) 
Heartbeat CPU 0 instructions: 80000004 cycles: 59825466 heartbeat IPC: 0.645365 cumulative IPC: 0.633914 (Simulation time: 0 hr 6 min 44 sec) 
Heartbeat CPU 0 instructions: 90000000 cycles: 75517944 heartbeat IPC: 0.637248 cumulative IPC: 0.634744 (Simulation time: 0 hr 7 min 51 sec) 
Heartbeat CPU 0 instructions: 100000004 cycles: 90165680 heartbeat IPC: 0.6827 cumulative IPC: 0.643789 (Simulation time: 0 hr 8 min 56 sec) 
*** Reached end of trace: /gpfs/projects/bsc18/MN4/bsc18/romol/ChampSim/traces/qualcomm_srv/srv642_ap.champsimtrace.xz
Heartbeat CPU 0 instructions: 110000002 cycles: 106021139 heartbeat IPC: 0.630698 cumulative IPC: 0.641569 (Simulation time: 0 hr 10 min 2 sec) 
Heartbeat CPU 0 instructions: 120000000 cycles: 122044542 heartbeat IPC: 0.624088 cumulative IPC: 0.639012 (Simulation time: 0 hr 11 min 9 sec) 
Heartbeat CPU 0 instructions: 130000000 cycles: 136629956 heartbeat IPC: 0.685617 cumulative IPC: 0.644488 (Simulation time: 0 hr 12 min 14 sec) 
Heartbeat CPU 0 instructions: 140000002 cycles: 151381295 heartbeat IPC: 0.677905 cumulative IPC: 0.648038 (Simulation time: 0 hr 13 min 20 sec) 
Heartbeat CPU 0 instructions: 150000002 cycles: 166347544 heartbeat IPC: 0.668171 cumulative IPC: 0.649996 (Simulation time: 0 hr 14 min 26 sec) 
Simulation finished CPU 0 instructions: 100000001 cycles: 153847188 cumulative IPC: 0.649996 (Simulation time: 0 hr 14 min 26 sec) 

Simulation complete CPU 0 instructions: 100000001 cycles: 153847188 (Simulation time: 0 hr 14 min 26 sec) 


ChampSim completed all CPUs

Saving instructions large page distribution to /home/bsc/bsc018186/scratch/itp_asplos25_AE/dump/srv642_ap.pdst...
Saving data large page distribution to /home/bsc/bsc018186/scratch/itp_asplos25_AE/dump/srv642_ap.pdst...
=== Simulation ===
CPU 0 runs /gpfs/projects/bsc18/MN4/bsc18/romol/ChampSim/traces/qualcomm_srv/srv642_ap.champsimtrace.xz

Region of Interest Statistics

CPU 0 cumulative IPC: 0.649996 instructions: 100000001 cycles: 153847188
CPU 0 Branch Prediction Accuracy: 83.3684% MPKI: 29.717 Average ROB Occupancy at Mispredict: 12.7669
Branch type MPKI
BRANCH_DIRECT_JUMP: 1.01965
BRANCH_INDIRECT: 15.3331
BRANCH_CONDITIONAL: 9.67066
BRANCH_DIRECT_CALL: 1.8437
BRANCH_INDIRECT_CALL: 0.51454
BRANCH_RETURN: 1.33528

Instructions large pages: 0
Instructions small pages: 1029
Large page distribution for instructions: 0%

Data large pages: 0
Data small pages: 10108
Large page distribution for data: 0%

cpu0_L1I TOTAL       ACCESS:   34741986  HIT:   26959139  MISS:    7782847  iACCESS:   34741986  iHIT:   26959139  iMISS:    7782847  dACCESS:          0  dHIT:          0  dMISS:          0  itACCESS:          0  itHIT:          0  itMISS:          0  dtACCESS:          0  dtHIT:          0  dtMISS:          0
cpu0_L1I LOAD         ACCESS:   10221645  HIT:    8031998  MISS:    2189647  iACCESS:   10221645  iHIT:    8031998  iMISS:    2189647  dACCESS:          0  dHIT:          0  dMISS:          0  itACCESS:          0  itHIT:          0  itMISS:          0  dtACCESS:          0  dtHIT:          0  dtMISS:          0
cpu0_L1I RFO          ACCESS:          0  HIT:          0  MISS:          0  iACCESS:          0  iHIT:          0  iMISS:          0  dACCESS:          0  dHIT:          0  dMISS:          0  itACCESS:          0  itHIT:          0  itMISS:          0  dtACCESS:          0  dtHIT:          0  dtMISS:          0
cpu0_L1I PREFETCH     ACCESS:   24520341  HIT:   18927141  MISS:    5593200  iACCESS:   24520341  iHIT:   18927141  iMISS:    5593200  dACCESS:          0  dHIT:          0  dMISS:          0  itACCESS:          0  itHIT:          0  itMISS:          0  dtACCESS:          0  dtHIT:          0  dtMISS:          0
cpu0_L1I WRITE        ACCESS:          0  HIT:          0  MISS:          0  iACCESS:          0  iHIT:          0  iMISS:          0  dACCESS:          0  dHIT:          0  dMISS:          0  itACCESS:          0  itHIT:          0  itMISS:          0  dtACCESS:          0  dtHIT:          0  dtMISS:          0
cpu0_L1I TRANSLATION  ACCESS:          0  HIT:          0  MISS:          0  iACCESS:          0  iHIT:          0  iMISS:          0  dACCESS:          0  dHIT:          0  dMISS:          0  itACCESS:          0  itHIT:          0  itMISS:          0  dtACCESS:          0  dtHIT:          0  dtMISS:          0
cpu0_L1I PREFETCH  REQUESTED:   27109378  ISSUED:   27109378  CROSSED:          0  USEFUL:    1892946  USELESS:     626504
cpu0_L1I AVERAGE iMISS LATENCY: 13.0538 cycles
cpu0_L1I AVERAGE dMISS LATENCY: 0 cycles
cpu0_L1I AVERAGE itMISS LATENCY: 0 cycles
cpu0_L1I AVERAGE dtMISS LATENCY: 0 cycles
cpu0_L1I PAGE CROSSINGS (TLB HIT):         0 
cpu0_L1I PAGE CROSSINGS (TLB MISS):         0 
cpu0_L1I AVERAGE MISS LATENCY: 13.0538 cycles
cpu0_ITLB TOTAL       ACCESS:   29012779  HIT:   27027113  MISS:    1985666  iACCESS:   29012779  iHIT:   27027113  iMISS:    1985666  dACCESS:          0  dHIT:          0  dMISS:          0  itACCESS:          0  itHIT:          0  itMISS:          0  dtACCESS:          0  dtHIT:          0  dtMISS:          0
cpu0_ITLB LOAD         ACCESS:   29012779  HIT:   27027113  MISS:    1985666  iACCESS:   29012779  iHIT:   27027113  iMISS:    1985666  dACCESS:          0  dHIT:          0  dMISS:          0  itACCESS:          0  itHIT:          0  itMISS:          0  dtACCESS:          0  dtHIT:          0  dtMISS:          0
cpu0_ITLB RFO          ACCESS:          0  HIT:          0  MISS:          0  iACCESS:          0  iHIT:          0  iMISS:          0  dACCESS:          0  dHIT:          0  dMISS:          0  itACCESS:          0  itHIT:          0  itMISS:          0  dtACCESS:          0  dtHIT:          0  dtMISS:          0
cpu0_ITLB PREFETCH     ACCESS:          0  HIT:          0  MISS:          0  iACCESS:          0  iHIT:          0  iMISS:          0  dACCESS:          0  dHIT:          0  dMISS:          0  itACCESS:          0  itHIT:          0  itMISS:          0  dtACCESS:          0  dtHIT:          0  dtMISS:          0
cpu0_ITLB WRITE        ACCESS:          0  HIT:          0  MISS:          0  iACCESS:          0  iHIT:          0  iMISS:          0  dACCESS:          0  dHIT:          0  dMISS:          0  itACCESS:          0  itHIT:          0  itMISS:          0  dtACCESS:          0  dtHIT:          0  dtMISS:          0
cpu0_ITLB TRANSLATION  ACCESS:          0  HIT:          0  MISS:          0  iACCESS:          0  iHIT:          0  iMISS:          0  dACCESS:          0  dHIT:          0  dMISS:          0  itACCESS:          0  itHIT:          0  itMISS:          0  dtACCESS:          0  dtHIT:          0  dtMISS:          0
cpu0_ITLB PREFETCH  REQUESTED:          0  ISSUED:          0  CROSSED:          0  USEFUL:     321288  USELESS:      67373
cpu0_ITLB AVERAGE iMISS LATENCY: 5.08285 cycles
cpu0_ITLB AVERAGE dMISS LATENCY: 0 cycles
cpu0_ITLB AVERAGE itMISS LATENCY: 0 cycles
cpu0_ITLB AVERAGE dtMISS LATENCY: 0 cycles
cpu0_ITLB PAGE CROSSINGS (TLB HIT):         0 
cpu0_ITLB PAGE CROSSINGS (TLB MISS):         0 
cpu0_ITLB AVERAGE MISS LATENCY: 5.08285 cycles
cpu0_DTLB TOTAL       ACCESS:   27684453  HIT:   25582774  MISS:    2101679  iACCESS:          0  iHIT:          0  iMISS:          0  dACCESS:   27684453  dHIT:   25582774  dMISS:    2101679  itACCESS:          0  itHIT:          0  itMISS:          0  dtACCESS:          0  dtHIT:          0  dtMISS:          0
cpu0_DTLB LOAD         ACCESS:   27684453  HIT:   25582774  MISS:    2101679  iACCESS:          0  iHIT:          0  iMISS:          0  dACCESS:   27684453  dHIT:   25582774  dMISS:    2101679  itACCESS:          0  itHIT:          0  itMISS:          0  dtACCESS:          0  dtHIT:          0  dtMISS:          0
cpu0_DTLB RFO          ACCESS:          0  HIT:          0  MISS:          0  iACCESS:          0  iHIT:          0  iMISS:          0  dACCESS:          0  dHIT:          0  dMISS:          0  itACCESS:          0  itHIT:          0  itMISS:          0  dtACCESS:          0  dtHIT:          0  dtMISS:          0
cpu0_DTLB PREFETCH     ACCESS:          0  HIT:          0  MISS:          0  iACCESS:          0  iHIT:          0  iMISS:          0  dACCESS:          0  dHIT:          0  dMISS:          0  itACCESS:          0  itHIT:          0  itMISS:          0  dtACCESS:          0  dtHIT:          0  dtMISS:          0
cpu0_DTLB WRITE        ACCESS:          0  HIT:          0  MISS:          0  iACCESS:          0  iHIT:          0  iMISS:          0  dACCESS:          0  dHIT:          0  dMISS:          0  itACCESS:          0  itHIT:          0  itMISS:          0  dtACCESS:          0  dtHIT:          0  dtMISS:          0
cpu0_DTLB TRANSLATION  ACCESS:          0  HIT:          0  MISS:          0  iACCESS:          0  iHIT:          0  iMISS:          0  dACCESS:          0  dHIT:          0  dMISS:          0  itACCESS:          0  itHIT:          0  itMISS:          0  dtACCESS:          0  dtHIT:          0  dtMISS:          0
cpu0_DTLB PREFETCH  REQUESTED:          0  ISSUED:          0  CROSSED:          0  USEFUL:          0  USELESS:          0
cpu0_DTLB AVERAGE iMISS LATENCY: 0 cycles
cpu0_DTLB AVERAGE dMISS LATENCY: 14.5064 cycles
cpu0_DTLB AVERAGE itMISS LATENCY: 0 cycles
cpu0_DTLB AVERAGE dtMISS LATENCY: 0 cycles
cpu0_DTLB PAGE CROSSINGS (TLB HIT):         0 
cpu0_DTLB PAGE CROSSINGS (TLB MISS):         0 
cpu0_DTLB AVERAGE MISS LATENCY: 14.5064 cycles
cpu0_STLB TOTAL       ACCESS:    1627172  HIT:    1451822  MISS:     175350  iACCESS:     388674  iHIT:     326075  iMISS:      62599  dACCESS:    1238498  dHIT:    1125747  dMISS:     112751  itACCESS:          0  itHIT:          0  itMISS:          0  dtACCESS:          0  dtHIT:          0  dtMISS:          0
cpu0_STLB LOAD         ACCESS:    1627172  HIT:    1451822  MISS:     175350  iACCESS:     388674  iHIT:     326075  iMISS:      62599  dACCESS:    1238498  dHIT:    1125747  dMISS:     112751  itACCESS:          0  itHIT:          0  itMISS:          0  dtACCESS:          0  dtHIT:          0  dtMISS:          0
cpu0_STLB RFO          ACCESS:          0  HIT:          0  MISS:          0  iACCESS:          0  iHIT:          0  iMISS:          0  dACCESS:          0  dHIT:          0  dMISS:          0  itACCESS:          0  itHIT:          0  itMISS:          0  dtACCESS:          0  dtHIT:          0  dtMISS:          0
cpu0_STLB PREFETCH     ACCESS:          0  HIT:          0  MISS:          0  iACCESS:          0  iHIT:          0  iMISS:          0  dACCESS:          0  dHIT:          0  dMISS:          0  itACCESS:          0  itHIT:          0  itMISS:          0  dtACCESS:          0  dtHIT:          0  dtMISS:          0
cpu0_STLB WRITE        ACCESS:          0  HIT:          0  MISS:          0  iACCESS:          0  iHIT:          0  iMISS:          0  dACCESS:          0  dHIT:          0  dMISS:          0  itACCESS:          0  itHIT:          0  itMISS:          0  dtACCESS:          0  dtHIT:          0  dtMISS:          0
cpu0_STLB TRANSLATION  ACCESS:          0  HIT:          0  MISS:          0  iACCESS:          0  iHIT:          0  iMISS:          0  dACCESS:          0  dHIT:          0  dMISS:          0  itACCESS:          0  itHIT:          0  itMISS:          0  dtACCESS:          0  dtHIT:          0  dtMISS:          0
cpu0_STLB PREFETCH  REQUESTED:          0  ISSUED:          0  CROSSED:          0  USEFUL:          0  USELESS:          0
cpu0_STLB AVERAGE iMISS LATENCY: 40.0055 cycles
cpu0_STLB AVERAGE dMISS LATENCY: 117.503 cycles
cpu0_STLB AVERAGE itMISS LATENCY: 0 cycles
cpu0_STLB AVERAGE dtMISS LATENCY: 0 cycles
cpu0_STLB PAGE CROSSINGS (TLB HIT):         0 
cpu0_STLB PAGE CROSSINGS (TLB MISS):         0 
cpu0_STLB AVERAGE MISS LATENCY: 157.508 cycles
cpu0_L1D TOTAL       ACCESS:   41420065  HIT:   38003749  MISS:    3416316  iACCESS:          0  iHIT:          0  iMISS:          0  dACCESS:   41183050  dHIT:   37982798  dMISS:    3200252  itACCESS:      68154  itHIT:       9738  itMISS:      58416  dtACCESS:     168861  dtHIT:      11213  dtMISS:     157648
cpu0_L1D LOAD         ACCESS:   18875289  HIT:   17415826  MISS:    1459463  iACCESS:          0  iHIT:          0  iMISS:          0  dACCESS:   18875289  dHIT:   17415826  dMISS:    1459463  itACCESS:          0  itHIT:          0  itMISS:          0  dtACCESS:          0  dtHIT:          0  dtMISS:          0
cpu0_L1D RFO          ACCESS:          0  HIT:          0  MISS:          0  iACCESS:          0  iHIT:          0  iMISS:          0  dACCESS:          0  dHIT:          0  dMISS:          0  itACCESS:          0  itHIT:          0  itMISS:          0  dtACCESS:          0  dtHIT:          0  dtMISS:          0
cpu0_L1D PREFETCH     ACCESS:   12118990  HIT:   10809340  MISS:    1309650  iACCESS:          0  iHIT:          0  iMISS:          0  dACCESS:   12118990  dHIT:   10809340  dMISS:    1309650  itACCESS:          0  itHIT:          0  itMISS:          0  dtACCESS:          0  dtHIT:          0  dtMISS:          0
cpu0_L1D WRITE        ACCESS:   10188771  HIT:    9757632  MISS:     431139  iACCESS:          0  iHIT:          0  iMISS:          0  dACCESS:   10188771  dHIT:    9757632  dMISS:     431139  itACCESS:          0  itHIT:          0  itMISS:          0  dtACCESS:          0  dtHIT:          0  dtMISS:          0
cpu0_L1D TRANSLATION  ACCESS:     237015  HIT:      20951  MISS:     216064  iACCESS:          0  iHIT:          0  iMISS:          0  dACCESS:          0  dHIT:          0  dMISS:          0  itACCESS:      68154  itHIT:       9738  itMISS:      58416  dtACCESS:     168861  dtHIT:      11213  dtMISS:     157648
cpu0_L1D PREFETCH  REQUESTED:   18875289  ISSUED:   16986059  CROSSED:          0  USEFUL:     306760  USELESS:     698096
cpu0_L1D AVERAGE iMISS LATENCY: 0 cycles
cpu0_L1D AVERAGE dMISS LATENCY: 34.1475 cycles
cpu0_L1D AVERAGE itMISS LATENCY: 1.89473 cycles
cpu0_L1D AVERAGE dtMISS LATENCY: 5.27158 cycles
cpu0_L1D PAGE CROSSINGS (TLB HIT):         0 
cpu0_L1D PAGE CROSSINGS (TLB MISS):         0 
cpu0_L1D AVERAGE MISS LATENCY: 41.3138 cycles
cpu0_L2C TOTAL       ACCESS:    6927756  HIT:    4000633  MISS:    2927123  iACCESS:    3279627  iHIT:    2186587  iMISS:    1093040  dACCESS:    3439674  dHIT:    1779415  dMISS:    1660259  itACCESS:      58416  itHIT:      11225  itMISS:      47191  dtACCESS:     150039  dtHIT:      23406  dtMISS:     126633
cpu0_L2C LOAD         ACCESS:    1721697  HIT:    1024540  MISS:     697157  iACCESS:     795769  iHIT:     553896  iMISS:     241873  dACCESS:     925928  dHIT:     470644  dMISS:     455284  itACCESS:          0  itHIT:          0  itMISS:          0  dtACCESS:          0  dtHIT:          0  dtMISS:          0
cpu0_L2C RFO          ACCESS:     157330  HIT:      72020  MISS:      85310  iACCESS:          0  iHIT:          0  iMISS:          0  dACCESS:     157330  dHIT:      72020  dMISS:      85310  itACCESS:          0  itHIT:          0  itMISS:          0  dtACCESS:          0  dtHIT:          0  dtMISS:          0
cpu0_L2C PREFETCH     ACCESS:    4555594  HIT:    2585583  MISS:    1970011  iACCESS:    2483858  iHIT:    1632691  iMISS:     851167  dACCESS:    2071736  dHIT:     952892  dMISS:    1118844  itACCESS:          0  itHIT:          0  itMISS:          0  dtACCESS:          0  dtHIT:          0  dtMISS:          0
cpu0_L2C WRITE        ACCESS:     284680  HIT:     283859  MISS:        821  iACCESS:          0  iHIT:          0  iMISS:          0  dACCESS:     284680  dHIT:     283859  dMISS:        821  itACCESS:          0  itHIT:          0  itMISS:          0  dtACCESS:          0  dtHIT:          0  dtMISS:          0
cpu0_L2C TRANSLATION  ACCESS:     208455  HIT:      34631  MISS:     173824  iACCESS:          0  iHIT:          0  iMISS:          0  dACCESS:          0  dHIT:          0  dMISS:          0  itACCESS:      58416  itHIT:      11225  itMISS:      47191  dtACCESS:     150039  dtHIT:      23406  dtMISS:     126633
cpu0_L2C PREFETCH  REQUESTED:    1313951  ISSUED:    1313951  CROSSED:          0  USEFUL:     313422  USELESS:     224814
cpu0_L2C AVERAGE iMISS LATENCY: 24.6992 cycles
cpu0_L2C AVERAGE dMISS LATENCY: 46.2645 cycles
cpu0_L2C AVERAGE itMISS LATENCY: 2.01515 cycles
cpu0_L2C AVERAGE dtMISS LATENCY: 5.64396 cycles
cpu0_L2C PAGE CROSSINGS (TLB HIT):         0 
cpu0_L2C PAGE CROSSINGS (TLB MISS):         0 
cpu0_L2C AVERAGE MISS LATENCY: 78.6228 cycles
LLC TOTAL       ACCESS:    2959566  HIT:    1870449  MISS:    1089117  iACCESS:    1042669  iHIT:     699270  iMISS:     343399  dACCESS:    1743073  dHIT:    1105433  dMISS:     637640  itACCESS:      47191  itHIT:      18160  itMISS:      29031  dtACCESS:     126633  dtHIT:      47586  dtMISS:      79047
LLC LOAD         ACCESS:     696013  HIT:     449949  MISS:     246064  iACCESS:     240922  iHIT:     162907  iMISS:      78015  dACCESS:     455091  dHIT:     287042  dMISS:     168049  itACCESS:          0  itHIT:          0  itMISS:          0  dtACCESS:          0  dtHIT:          0  dtMISS:          0
LLC RFO          ACCESS:      85309  HIT:      43895  MISS:      41414  iACCESS:          0  iHIT:          0  iMISS:          0  dACCESS:      85309  dHIT:      43895  dMISS:      41414  itACCESS:          0  itHIT:          0  itMISS:          0  dtACCESS:          0  dtHIT:          0  dtMISS:          0
LLC PREFETCH     ACCESS:    1868862  HIT:    1181901  MISS:     686961  iACCESS:     801747  iHIT:     536363  iMISS:     265384  dACCESS:    1067115  dHIT:     645538  dMISS:     421577  itACCESS:          0  itHIT:          0  itMISS:          0  dtACCESS:          0  dtHIT:          0  dtMISS:          0
LLC WRITE        ACCESS:     135558  HIT:     128958  MISS:       6600  iACCESS:          0  iHIT:          0  iMISS:          0  dACCESS:     135558  dHIT:     128958  dMISS:       6600  itACCESS:          0  itHIT:          0  itMISS:          0  dtACCESS:          0  dtHIT:          0  dtMISS:          0
LLC TRANSLATION  ACCESS:     173824  HIT:      65746  MISS:     108078  iACCESS:          0  iHIT:          0  iMISS:          0  dACCESS:          0  dHIT:          0  dMISS:          0  itACCESS:      47191  itHIT:      18160  itMISS:      29031  dtACCESS:     126633  dtHIT:      47586  dtMISS:      79047
LLC PREFETCH  REQUESTED:          0  ISSUED:          0  CROSSED:          0  USEFUL:          0  USELESS:          0
LLC AVERAGE iMISS LATENCY: 47.7882 cycles
LLC AVERAGE dMISS LATENCY: 95.744 cycles
LLC AVERAGE itMISS LATENCY: 4.56777 cycles
LLC AVERAGE dtMISS LATENCY: 12.8938 cycles
LLC PAGE CROSSINGS (TLB HIT):         0 
LLC PAGE CROSSINGS (TLB MISS):         0 
LLC AVERAGE MISS LATENCY: 160.994 cycles

PageTableWalker TOTAL       ACCESS:      86881  
PageTableWalker AVERAGE LATENCY: 5.27164 cycles
PageTableWalker TOTAL LATENCY: 458005 cycles

DRAM Statistics
Channel 0
 RQ ROW_BUFFER_HIT:     255138
  ROW_BUFFER_MISS:     827314
 AVG DBUS CONGESTED CYCLE:    3.62114
 WQ ROW_BUFFER_HIT:      22621
  ROW_BUFFER_MISS:      22525  FULL:          0

