last_page:0x200000000000000
VMEM_RES_CAP:0x100000
PAGE_SIZE:4096
LOG2_PAGE_SIZE:12
LOG2_PAGE_TABLE_SIZE:9
page_table_levels:5
WARNING: physical memory size is smaller than virtual memory size
FDiP enabled with aggresivity 16

*** ChampSim Multicore Out-of-Order Simulator ***

Warmup Instructions: 50000000
Simulation Instructions: 100000000
Number of CPUs: 1
Small page size: 4096
Large page size: 2097152

CPU 0 Bimodal branch predictor
Basic BTB sets: 1024 ways: 8 indirect buffer size: 4096 RAS size: 64
Instruction page size distrubution: 0
Loading instruction page size distribution from /home/bsc/bsc018186/scratch/itp_asplos25_AE/dump/srv61_ap.pdst
Data page size distrubution: 0
Loading data page size distribution from /home/bsc/bsc018186/scratch/itp_asplos25_AE/dump/srv61_ap.pdst
cpu0_L2C IP-based stride prefetcher
cpu0_L2C is using PTP replacement policy:
	TLB_STRESS_THRESHOLD:0
	PTE_EVICTION_RATIO:0
cpu0_L1D next line prefetcher
cpu0_L1I next line prefetcher
Off-chip DRAM Size: 4 GiB Channels: 1 Width: 64-bit Data Rate: 3200 MT/s
Heartbeat CPU 0 instructions: 10000003 cycles: 2500152 heartbeat IPC: 3.99976 cumulative IPC: 3.99976 (Simulation time: 0 hr 0 min 37 sec) 
Heartbeat CPU 0 instructions: 20000003 cycles: 5000207 heartbeat IPC: 3.99992 cumulative IPC: 3.99984 (Simulation time: 0 hr 1 min 16 sec) 
Heartbeat CPU 0 instructions: 30000001 cycles: 7500243 heartbeat IPC: 3.99995 cumulative IPC: 3.99988 (Simulation time: 0 hr 1 min 56 sec) 
Heartbeat CPU 0 instructions: 40000003 cycles: 10000364 heartbeat IPC: 3.99981 cumulative IPC: 3.99986 (Simulation time: 0 hr 2 min 36 sec) 
Heartbeat CPU 0 instructions: 50000001 cycles: 12500391 heartbeat IPC: 3.99996 cumulative IPC: 3.99988 (Simulation time: 0 hr 3 min 16 sec) 
Warmup finished CPU 0 instructions: 50000001 cycles: 12500392 cumulative IPC: 3.99988 (Simulation time: 0 hr 3 min 16 sec) 

Warmup complete CPU 0 instructions: 50000001 cycles: 12500392 (Simulation time: 0 hr 3 min 16 sec) 

Heartbeat CPU 0 instructions: 60000000 cycles: 30695256 heartbeat IPC: 0.549606 cumulative IPC: 0.549606 (Simulation time: 0 hr 4 min 25 sec) 
Heartbeat CPU 0 instructions: 70000001 cycles: 49088734 heartbeat IPC: 0.543672 cumulative IPC: 0.546623 (Simulation time: 0 hr 5 min 34 sec) 
Heartbeat CPU 0 instructions: 80000002 cycles: 67089943 heartbeat IPC: 0.555519 cumulative IPC: 0.549556 (Simulation time: 0 hr 6 min 42 sec) 
Heartbeat CPU 0 instructions: 90000000 cycles: 85357868 heartbeat IPC: 0.547408 cumulative IPC: 0.549018 (Simulation time: 0 hr 7 min 51 sec) 
Heartbeat CPU 0 instructions: 100000000 cycles: 103769514 heartbeat IPC: 0.543135 cumulative IPC: 0.547831 (Simulation time: 0 hr 9 min 0 sec) 
*** Reached end of trace: /gpfs/projects/bsc18/MN4/bsc18/romol/ChampSim/traces/qualcomm_srv/srv61_ap.champsimtrace.xz
Heartbeat CPU 0 instructions: 110000002 cycles: 122090498 heartbeat IPC: 0.545823 cumulative IPC: 0.547495 (Simulation time: 0 hr 10 min 9 sec) 
Heartbeat CPU 0 instructions: 120000000 cycles: 140379677 heartbeat IPC: 0.546772 cumulative IPC: 0.547392 (Simulation time: 0 hr 11 min 18 sec) 
Heartbeat CPU 0 instructions: 130000001 cycles: 157841664 heartbeat IPC: 0.572673 cumulative IPC: 0.550429 (Simulation time: 0 hr 12 min 26 sec) 
Heartbeat CPU 0 instructions: 140000004 cycles: 176197003 heartbeat IPC: 0.544801 cumulative IPC: 0.549798 (Simulation time: 0 hr 13 min 35 sec) 
Heartbeat CPU 0 instructions: 150000001 cycles: 194034126 heartbeat IPC: 0.560629 cumulative IPC: 0.550862 (Simulation time: 0 hr 14 min 44 sec) 
Simulation finished CPU 0 instructions: 100000000 cycles: 181533735 cumulative IPC: 0.550862 (Simulation time: 0 hr 14 min 44 sec) 

Simulation complete CPU 0 instructions: 100000000 cycles: 181533735 (Simulation time: 0 hr 14 min 44 sec) 


ChampSim completed all CPUs

Saving instructions large page distribution to /home/bsc/bsc018186/scratch/itp_asplos25_AE/dump/srv61_ap.pdst...
Saving data large page distribution to /home/bsc/bsc018186/scratch/itp_asplos25_AE/dump/srv61_ap.pdst...
=== Simulation ===
CPU 0 runs /gpfs/projects/bsc18/MN4/bsc18/romol/ChampSim/traces/qualcomm_srv/srv61_ap.champsimtrace.xz

Region of Interest Statistics

CPU 0 cumulative IPC: 0.550862 instructions: 100000000 cycles: 181533735
CPU 0 Branch Prediction Accuracy: 80.5502% MPKI: 35.0946 Average ROB Occupancy at Mispredict: 10.5409
Branch type MPKI
BRANCH_DIRECT_JUMP: 1.29427
BRANCH_INDIRECT: 17.5419
BRANCH_CONDITIONAL: 11.4374
BRANCH_DIRECT_CALL: 2.43121
BRANCH_INDIRECT_CALL: 0.689041
BRANCH_RETURN: 1.70092

Instructions large pages: 0
Instructions small pages: 5712
Large page distribution for instructions: 0%

Data large pages: 0
Data small pages: 4613
Large page distribution for data: 0%

cpu0_L1I TOTAL       ACCESS:   35706178  HIT:   27333742  MISS:    8372436  iACCESS:   35706178  iHIT:   27333742  iMISS:    8372436  dACCESS:          0  dHIT:          0  dMISS:          0  itACCESS:          0  itHIT:          0  itMISS:          0  dtACCESS:          0  dtHIT:          0  dtMISS:          0
cpu0_L1I LOAD         ACCESS:   10280701  HIT:    7984795  MISS:    2295906  iACCESS:   10280701  iHIT:    7984795  iMISS:    2295906  dACCESS:          0  dHIT:          0  dMISS:          0  itACCESS:          0  itHIT:          0  itMISS:          0  dtACCESS:          0  dtHIT:          0  dtMISS:          0
cpu0_L1I RFO          ACCESS:          0  HIT:          0  MISS:          0  iACCESS:          0  iHIT:          0  iMISS:          0  dACCESS:          0  dHIT:          0  dMISS:          0  itACCESS:          0  itHIT:          0  itMISS:          0  dtACCESS:          0  dtHIT:          0  dtMISS:          0
cpu0_L1I PREFETCH     ACCESS:   25425477  HIT:   19348947  MISS:    6076530  iACCESS:   25425477  iHIT:   19348947  iMISS:    6076530  dACCESS:          0  dHIT:          0  dMISS:          0  itACCESS:          0  itHIT:          0  itMISS:          0  dtACCESS:          0  dtHIT:          0  dtMISS:          0
cpu0_L1I WRITE        ACCESS:          0  HIT:          0  MISS:          0  iACCESS:          0  iHIT:          0  iMISS:          0  dACCESS:          0  dHIT:          0  dMISS:          0  itACCESS:          0  itHIT:          0  itMISS:          0  dtACCESS:          0  dtHIT:          0  dtMISS:          0
cpu0_L1I TRANSLATION  ACCESS:          0  HIT:          0  MISS:          0  iACCESS:          0  iHIT:          0  iMISS:          0  dACCESS:          0  dHIT:          0  dMISS:          0  itACCESS:          0  itHIT:          0  itMISS:          0  dtACCESS:          0  dtHIT:          0  dtMISS:          0
cpu0_L1I PREFETCH  REQUESTED:   27587349  ISSUED:   27583619  CROSSED:          0  USEFUL:    1956560  USELESS:     647737
cpu0_L1I AVERAGE iMISS LATENCY: 19.5902 cycles
cpu0_L1I AVERAGE dMISS LATENCY: 0 cycles
cpu0_L1I AVERAGE itMISS LATENCY: 0 cycles
cpu0_L1I AVERAGE dtMISS LATENCY: 0 cycles
cpu0_L1I PAGE CROSSINGS (TLB HIT):         0 
cpu0_L1I PAGE CROSSINGS (TLB MISS):         0 
cpu0_L1I AVERAGE MISS LATENCY: 19.5902 cycles
cpu0_ITLB TOTAL       ACCESS:   29826775  HIT:   27897903  MISS:    1928872  iACCESS:   29826775  iHIT:   27897903  iMISS:    1928872  dACCESS:          0  dHIT:          0  dMISS:          0  itACCESS:          0  itHIT:          0  itMISS:          0  dtACCESS:          0  dtHIT:          0  dtMISS:          0
cpu0_ITLB LOAD         ACCESS:   29826775  HIT:   27897903  MISS:    1928872  iACCESS:   29826775  iHIT:   27897903  iMISS:    1928872  dACCESS:          0  dHIT:          0  dMISS:          0  itACCESS:          0  itHIT:          0  itMISS:          0  dtACCESS:          0  dtHIT:          0  dtMISS:          0
cpu0_ITLB RFO          ACCESS:          0  HIT:          0  MISS:          0  iACCESS:          0  iHIT:          0  iMISS:          0  dACCESS:          0  dHIT:          0  dMISS:          0  itACCESS:          0  itHIT:          0  itMISS:          0  dtACCESS:          0  dtHIT:          0  dtMISS:          0
cpu0_ITLB PREFETCH     ACCESS:          0  HIT:          0  MISS:          0  iACCESS:          0  iHIT:          0  iMISS:          0  dACCESS:          0  dHIT:          0  dMISS:          0  itACCESS:          0  itHIT:          0  itMISS:          0  dtACCESS:          0  dtHIT:          0  dtMISS:          0
cpu0_ITLB WRITE        ACCESS:          0  HIT:          0  MISS:          0  iACCESS:          0  iHIT:          0  iMISS:          0  dACCESS:          0  dHIT:          0  dMISS:          0  itACCESS:          0  itHIT:          0  itMISS:          0  dtACCESS:          0  dtHIT:          0  dtMISS:          0
cpu0_ITLB TRANSLATION  ACCESS:          0  HIT:          0  MISS:          0  iACCESS:          0  iHIT:          0  iMISS:          0  dACCESS:          0  dHIT:          0  dMISS:          0  itACCESS:          0  itHIT:          0  itMISS:          0  dtACCESS:          0  dtHIT:          0  dtMISS:          0
cpu0_ITLB PREFETCH  REQUESTED:          0  ISSUED:          0  CROSSED:          0  USEFUL:     327985  USELESS:      60745
cpu0_ITLB AVERAGE iMISS LATENCY: 3.65062 cycles
cpu0_ITLB AVERAGE dMISS LATENCY: 0 cycles
cpu0_ITLB AVERAGE itMISS LATENCY: 0 cycles
cpu0_ITLB AVERAGE dtMISS LATENCY: 0 cycles
cpu0_ITLB PAGE CROSSINGS (TLB HIT):         0 
cpu0_ITLB PAGE CROSSINGS (TLB MISS):         0 
cpu0_ITLB AVERAGE MISS LATENCY: 3.65062 cycles
cpu0_DTLB TOTAL       ACCESS:   27977361  HIT:   26016719  MISS:    1960642  iACCESS:          0  iHIT:          0  iMISS:          0  dACCESS:   27977361  dHIT:   26016719  dMISS:    1960642  itACCESS:          0  itHIT:          0  itMISS:          0  dtACCESS:          0  dtHIT:          0  dtMISS:          0
cpu0_DTLB LOAD         ACCESS:   27977361  HIT:   26016719  MISS:    1960642  iACCESS:          0  iHIT:          0  iMISS:          0  dACCESS:   27977361  dHIT:   26016719  dMISS:    1960642  itACCESS:          0  itHIT:          0  itMISS:          0  dtACCESS:          0  dtHIT:          0  dtMISS:          0
cpu0_DTLB RFO          ACCESS:          0  HIT:          0  MISS:          0  iACCESS:          0  iHIT:          0  iMISS:          0  dACCESS:          0  dHIT:          0  dMISS:          0  itACCESS:          0  itHIT:          0  itMISS:          0  dtACCESS:          0  dtHIT:          0  dtMISS:          0
cpu0_DTLB PREFETCH     ACCESS:          0  HIT:          0  MISS:          0  iACCESS:          0  iHIT:          0  iMISS:          0  dACCESS:          0  dHIT:          0  dMISS:          0  itACCESS:          0  itHIT:          0  itMISS:          0  dtACCESS:          0  dtHIT:          0  dtMISS:          0
cpu0_DTLB WRITE        ACCESS:          0  HIT:          0  MISS:          0  iACCESS:          0  iHIT:          0  iMISS:          0  dACCESS:          0  dHIT:          0  dMISS:          0  itACCESS:          0  itHIT:          0  itMISS:          0  dtACCESS:          0  dtHIT:          0  dtMISS:          0
cpu0_DTLB TRANSLATION  ACCESS:          0  HIT:          0  MISS:          0  iACCESS:          0  iHIT:          0  iMISS:          0  dACCESS:          0  dHIT:          0  dMISS:          0  itACCESS:          0  itHIT:          0  itMISS:          0  dtACCESS:          0  dtHIT:          0  dtMISS:          0
cpu0_DTLB PREFETCH  REQUESTED:          0  ISSUED:          0  CROSSED:          0  USEFUL:          0  USELESS:          0
cpu0_DTLB AVERAGE iMISS LATENCY: 0 cycles
cpu0_DTLB AVERAGE dMISS LATENCY: 9.7557 cycles
cpu0_DTLB AVERAGE itMISS LATENCY: 0 cycles
cpu0_DTLB AVERAGE dtMISS LATENCY: 0 cycles
cpu0_DTLB PAGE CROSSINGS (TLB HIT):         0 
cpu0_DTLB PAGE CROSSINGS (TLB MISS):         0 
cpu0_DTLB AVERAGE MISS LATENCY: 9.7557 cycles
cpu0_STLB TOTAL       ACCESS:    1625979  HIT:    1393431  MISS:     232548  iACCESS:     388743  iHIT:     300857  iMISS:      87886  dACCESS:    1237236  dHIT:    1092574  dMISS:     144662  itACCESS:          0  itHIT:          0  itMISS:          0  dtACCESS:          0  dtHIT:          0  dtMISS:          0
cpu0_STLB LOAD         ACCESS:    1625979  HIT:    1393431  MISS:     232548  iACCESS:     388743  iHIT:     300857  iMISS:      87886  dACCESS:    1237236  dHIT:    1092574  dMISS:     144662  itACCESS:          0  itHIT:          0  itMISS:          0  dtACCESS:          0  dtHIT:          0  dtMISS:          0
cpu0_STLB RFO          ACCESS:          0  HIT:          0  MISS:          0  iACCESS:          0  iHIT:          0  iMISS:          0  dACCESS:          0  dHIT:          0  dMISS:          0  itACCESS:          0  itHIT:          0  itMISS:          0  dtACCESS:          0  dtHIT:          0  dtMISS:          0
cpu0_STLB PREFETCH     ACCESS:          0  HIT:          0  MISS:          0  iACCESS:          0  iHIT:          0  iMISS:          0  dACCESS:          0  dHIT:          0  dMISS:          0  itACCESS:          0  itHIT:          0  itMISS:          0  dtACCESS:          0  dtHIT:          0  dtMISS:          0
cpu0_STLB WRITE        ACCESS:          0  HIT:          0  MISS:          0  iACCESS:          0  iHIT:          0  iMISS:          0  dACCESS:          0  dHIT:          0  dMISS:          0  itACCESS:          0  itHIT:          0  itMISS:          0  dtACCESS:          0  dtHIT:          0  dtMISS:          0
cpu0_STLB TRANSLATION  ACCESS:          0  HIT:          0  MISS:          0  iACCESS:          0  iHIT:          0  iMISS:          0  dACCESS:          0  dHIT:          0  dMISS:          0  itACCESS:          0  itHIT:          0  itMISS:          0  dtACCESS:          0  dtHIT:          0  dtMISS:          0
cpu0_STLB PREFETCH  REQUESTED:          0  ISSUED:          0  CROSSED:          0  USEFUL:          0  USELESS:          0
cpu0_STLB AVERAGE iMISS LATENCY: 16.9388 cycles
cpu0_STLB AVERAGE dMISS LATENCY: 39.7577 cycles
cpu0_STLB AVERAGE itMISS LATENCY: 0 cycles
cpu0_STLB AVERAGE dtMISS LATENCY: 0 cycles
cpu0_STLB PAGE CROSSINGS (TLB HIT):         0 
cpu0_STLB PAGE CROSSINGS (TLB MISS):         0 
cpu0_STLB AVERAGE MISS LATENCY: 56.6964 cycles
cpu0_L1D TOTAL       ACCESS:   42668717  HIT:   38379080  MISS:    4289637  iACCESS:          0  iHIT:          0  iMISS:          0  dACCESS:   42370749  dHIT:   38351860  dMISS:    4018889  itACCESS:      94315  itHIT:      15201  itMISS:      79114  dtACCESS:     203653  dtHIT:      12019  dtMISS:     191634
cpu0_L1D LOAD         ACCESS:   19393650  HIT:   17584307  MISS:    1809343  iACCESS:          0  iHIT:          0  iMISS:          0  dACCESS:   19393650  dHIT:   17584307  dMISS:    1809343  itACCESS:          0  itHIT:          0  itMISS:          0  dtACCESS:          0  dtHIT:          0  dtMISS:          0
cpu0_L1D RFO          ACCESS:          0  HIT:          0  MISS:          0  iACCESS:          0  iHIT:          0  iMISS:          0  dACCESS:          0  dHIT:          0  dMISS:          0  itACCESS:          0  itHIT:          0  itMISS:          0  dtACCESS:          0  dtHIT:          0  dtMISS:          0
cpu0_L1D PREFETCH     ACCESS:   12797524  HIT:   11092374  MISS:    1705150  iACCESS:          0  iHIT:          0  iMISS:          0  dACCESS:   12797524  dHIT:   11092374  dMISS:    1705150  itACCESS:          0  itHIT:          0  itMISS:          0  dtACCESS:          0  dtHIT:          0  dtMISS:          0
cpu0_L1D WRITE        ACCESS:   10179575  HIT:    9675179  MISS:     504396  iACCESS:          0  iHIT:          0  iMISS:          0  dACCESS:   10179575  dHIT:    9675179  dMISS:     504396  itACCESS:          0  itHIT:          0  itMISS:          0  dtACCESS:          0  dtHIT:          0  dtMISS:          0
cpu0_L1D TRANSLATION  ACCESS:     297968  HIT:      27220  MISS:     270748  iACCESS:          0  iHIT:          0  iMISS:          0  dACCESS:          0  dHIT:          0  dMISS:          0  itACCESS:      94315  itHIT:      15201  itMISS:      79114  dtACCESS:     203653  dtHIT:      12019  dtMISS:     191634
cpu0_L1D PREFETCH  REQUESTED:   19393650  ISSUED:   17274302  CROSSED:          0  USEFUL:     310654  USELESS:     703293
cpu0_L1D AVERAGE iMISS LATENCY: 0 cycles
cpu0_L1D AVERAGE dMISS LATENCY: 40.4185 cycles
cpu0_L1D AVERAGE itMISS LATENCY: 0.740658 cycles
cpu0_L1D AVERAGE dtMISS LATENCY: 1.71961 cycles
cpu0_L1D PAGE CROSSINGS (TLB HIT):         0 
cpu0_L1D PAGE CROSSINGS (TLB MISS):         0 
cpu0_L1D AVERAGE MISS LATENCY: 42.8787 cycles
cpu0_L2C TOTAL       ACCESS:    7218034  HIT:    1261504  MISS:    5956530  iACCESS:    3326335  iHIT:     678510  iMISS:    2647825  dACCESS:    3631882  dHIT:     378732  dMISS:    3253150  itACCESS:      79014  itHIT:      59565  itMISS:      19449  dtACCESS:     180803  dtHIT:     144697  dtMISS:      36106
cpu0_L2C LOAD         ACCESS:    1707432  HIT:     130722  MISS:    1576710  iACCESS:     757984  iHIT:      93947  iMISS:     664037  dACCESS:     949448  dHIT:      36775  dMISS:     912673  itACCESS:          0  itHIT:          0  itMISS:          0  dtACCESS:          0  dtHIT:          0  dtMISS:          0
cpu0_L2C RFO          ACCESS:     166577  HIT:       6350  MISS:     160227  iACCESS:          0  iHIT:          0  iMISS:          0  dACCESS:     166577  dHIT:       6350  dMISS:     160227  itACCESS:          0  itHIT:          0  itMISS:          0  dtACCESS:          0  dtHIT:          0  dtMISS:          0
cpu0_L2C PREFETCH     ACCESS:    4806342  HIT:     862464  MISS:    3943878  iACCESS:    2568351  iHIT:     584563  iMISS:    1983788  dACCESS:    2237991  dHIT:     277901  dMISS:    1960090  itACCESS:          0  itHIT:          0  itMISS:          0  dtACCESS:          0  dtHIT:          0  dtMISS:          0
cpu0_L2C WRITE        ACCESS:     277866  HIT:      57706  MISS:     220160  iACCESS:          0  iHIT:          0  iMISS:          0  dACCESS:     277866  dHIT:      57706  dMISS:     220160  itACCESS:          0  itHIT:          0  itMISS:          0  dtACCESS:          0  dtHIT:          0  dtMISS:          0
cpu0_L2C TRANSLATION  ACCESS:     259817  HIT:     204262  MISS:      55555  iACCESS:          0  iHIT:          0  iMISS:          0  dACCESS:          0  dHIT:          0  dMISS:          0  itACCESS:      79014  itHIT:      59565  itMISS:      19449  dtACCESS:     180803  dtHIT:     144697  dtMISS:      36106
cpu0_L2C PREFETCH  REQUESTED:    1478299  ISSUED:    1478299  CROSSED:          0  USEFUL:     417081  USELESS:     443965
cpu0_L2C AVERAGE iMISS LATENCY: 22.5795 cycles
cpu0_L2C AVERAGE dMISS LATENCY: 36.8347 cycles
cpu0_L2C AVERAGE itMISS LATENCY: 0.410374 cycles
cpu0_L2C AVERAGE dtMISS LATENCY: 0.958215 cycles
cpu0_L2C PAGE CROSSINGS (TLB HIT):         0 
cpu0_L2C PAGE CROSSINGS (TLB MISS):         0 
cpu0_L2C AVERAGE MISS LATENCY: 60.7827 cycles
LLC TOTAL       ACCESS:    5805492  HIT:    4213940  MISS:    1591552  iACCESS:    2569285  iHIT:    1995487  iMISS:     573798  dACCESS:    3180652  dHIT:    2201142  dMISS:     979510  itACCESS:      19449  itHIT:       7617  itMISS:      11832  dtACCESS:      36106  dtHIT:       9694  dtMISS:      26412
LLC LOAD         ACCESS:    1570093  HIT:    1208881  MISS:     361212  iACCESS:     662464  iHIT:     547033  iMISS:     115431  dACCESS:     907629  dHIT:     661848  dMISS:     245781  itACCESS:          0  itHIT:          0  itMISS:          0  dtACCESS:          0  dtHIT:          0  dtMISS:          0
LLC RFO          ACCESS:     160200  HIT:      94133  MISS:      66067  iACCESS:          0  iHIT:          0  iMISS:          0  dACCESS:     160200  dHIT:      94133  dMISS:      66067  itACCESS:          0  itHIT:          0  itMISS:          0  dtACCESS:          0  dtHIT:          0  dtMISS:          0
LLC PREFETCH     ACCESS:    3766036  HIT:    2640007  MISS:    1126029  iACCESS:    1906821  iHIT:    1448454  iMISS:     458367  dACCESS:    1859215  dHIT:    1191553  dMISS:     667662  itACCESS:          0  itHIT:          0  itMISS:          0  dtACCESS:          0  dtHIT:          0  dtMISS:          0
LLC WRITE        ACCESS:     253608  HIT:     253608  MISS:          0  iACCESS:          0  iHIT:          0  iMISS:          0  dACCESS:     253608  dHIT:     253608  dMISS:          0  itACCESS:          0  itHIT:          0  itMISS:          0  dtACCESS:          0  dtHIT:          0  dtMISS:          0
LLC TRANSLATION  ACCESS:      55555  HIT:      17311  MISS:      38244  iACCESS:          0  iHIT:          0  iMISS:          0  dACCESS:          0  dHIT:          0  dMISS:          0  itACCESS:      19449  itHIT:       7617  itMISS:      11832  dtACCESS:      36106  dtHIT:       9694  dtMISS:      26412
LLC PREFETCH  REQUESTED:          0  ISSUED:          0  CROSSED:          0  USEFUL:          0  USELESS:          0
LLC AVERAGE iMISS LATENCY: 53.2368 cycles
LLC AVERAGE dMISS LATENCY: 103.339 cycles
LLC AVERAGE itMISS LATENCY: 1.29681 cycles
LLC AVERAGE dtMISS LATENCY: 3.14016 cycles
LLC PAGE CROSSINGS (TLB HIT):         0 
LLC PAGE CROSSINGS (TLB MISS):         0 
LLC AVERAGE MISS LATENCY: 161.012 cycles

PageTableWalker TOTAL       ACCESS:     116015  
PageTableWalker AVERAGE LATENCY: 3.77868 cycles
PageTableWalker TOTAL LATENCY: 438383 cycles

DRAM Statistics
Channel 0
 RQ ROW_BUFFER_HIT:     470085
  ROW_BUFFER_MISS:    1111022
 AVG DBUS CONGESTED CYCLE:    3.65187
 WQ ROW_BUFFER_HIT:      40207
  ROW_BUFFER_MISS:      40338  FULL:          0

