last_page:0x200000000000000
VMEM_RES_CAP:0x100000
PAGE_SIZE:4096
LOG2_PAGE_SIZE:12
LOG2_PAGE_TABLE_SIZE:9
page_table_levels:5
WARNING: physical memory size is smaller than virtual memory size
FDiP enabled with aggresivity 16

*** ChampSim Multicore Out-of-Order Simulator ***

Warmup Instructions: 50000000
Simulation Instructions: 100000000
Number of CPUs: 1
Small page size: 4096
Large page size: 2097152

CPU 0 Bimodal branch predictor
Basic BTB sets: 1024 ways: 8 indirect buffer size: 4096 RAS size: 64
Instruction page size distrubution: 0
Loading instruction page size distribution from /home/bsc/bsc018186/scratch/itp_asplos25_AE/dump/srv612_ap.pdst
Data page size distrubution: 0
Loading data page size distribution from /home/bsc/bsc018186/scratch/itp_asplos25_AE/dump/srv612_ap.pdst
cpu0_L2C IP-based stride prefetcher
cpu0_L1D next line prefetcher
cpu0_STLB using iTP with max lru@8
cpu0_STLB using iTP with instr@0 and data@2
Init sat counter with 3 bits (max:50).
cpu0_L1I next line prefetcher
Off-chip DRAM Size: 4 GiB Channels: 1 Width: 64-bit Data Rate: 3200 MT/s
Heartbeat CPU 0 instructions: 10000001 cycles: 2781611 heartbeat IPC: 3.59504 cumulative IPC: 3.59504 (Simulation time: 0 hr 0 min 37 sec) 
Heartbeat CPU 0 instructions: 20000003 cycles: 5759653 heartbeat IPC: 3.35792 cumulative IPC: 3.47244 (Simulation time: 0 hr 1 min 16 sec) 
Heartbeat CPU 0 instructions: 30000001 cycles: 8545753 heartbeat IPC: 3.58925 cumulative IPC: 3.51052 (Simulation time: 0 hr 1 min 51 sec) 
Heartbeat CPU 0 instructions: 40000000 cycles: 11194604 heartbeat IPC: 3.77523 cumulative IPC: 3.57316 (Simulation time: 0 hr 2 min 26 sec) 
Heartbeat CPU 0 instructions: 50000001 cycles: 13718928 heartbeat IPC: 3.96146 cumulative IPC: 3.6446 (Simulation time: 0 hr 3 min 0 sec) 
Warmup finished CPU 0 instructions: 50000001 cycles: 13718929 cumulative IPC: 3.6446 (Simulation time: 0 hr 3 min 0 sec) 

Warmup complete CPU 0 instructions: 50000001 cycles: 13718929 (Simulation time: 0 hr 3 min 0 sec) 

Heartbeat CPU 0 instructions: 60000001 cycles: 55515935 heartbeat IPC: 0.239252 cumulative IPC: 0.239252 (Simulation time: 0 hr 5 min 6 sec) 
Heartbeat CPU 0 instructions: 70000004 cycles: 110340574 heartbeat IPC: 0.1824 cumulative IPC: 0.206993 (Simulation time: 0 hr 7 min 45 sec) 
Heartbeat CPU 0 instructions: 80000000 cycles: 143961407 heartbeat IPC: 0.297435 cumulative IPC: 0.23034 (Simulation time: 0 hr 9 min 34 sec) 
Heartbeat CPU 0 instructions: 90000002 cycles: 173187552 heartbeat IPC: 0.34216 cumulative IPC: 0.250834 (Simulation time: 0 hr 11 min 14 sec) 
Heartbeat CPU 0 instructions: 100000001 cycles: 196491534 heartbeat IPC: 0.429112 cumulative IPC: 0.273564 (Simulation time: 0 hr 12 min 41 sec) 
*** Reached end of trace: /gpfs/projects/bsc18/MN4/bsc18/romol/ChampSim/traces/qualcomm_srv/srv612_ap.champsimtrace.xz
Heartbeat CPU 0 instructions: 110000000 cycles: 210795688 heartbeat IPC: 0.699098 cumulative IPC: 0.30445 (Simulation time: 0 hr 13 min 51 sec) 
Heartbeat CPU 0 instructions: 120000004 cycles: 219983598 heartbeat IPC: 1.08839 cumulative IPC: 0.33937 (Simulation time: 0 hr 14 min 48 sec) 
Heartbeat CPU 0 instructions: 130000004 cycles: 228167679 heartbeat IPC: 1.22189 cumulative IPC: 0.37305 (Simulation time: 0 hr 15 min 41 sec) 
Heartbeat CPU 0 instructions: 140000000 cycles: 235764376 heartbeat IPC: 1.31637 cumulative IPC: 0.405323 (Simulation time: 0 hr 16 min 31 sec) 
Heartbeat CPU 0 instructions: 150000000 cycles: 256749752 heartbeat IPC: 0.476523 cumulative IPC: 0.411471 (Simulation time: 0 hr 17 min 49 sec) 
Simulation finished CPU 0 instructions: 100000000 cycles: 243030825 cumulative IPC: 0.411471 (Simulation time: 0 hr 17 min 49 sec) 

Simulation complete CPU 0 instructions: 100000000 cycles: 243030825 (Simulation time: 0 hr 17 min 49 sec) 


ChampSim completed all CPUs

Saving instructions large page distribution to /home/bsc/bsc018186/scratch/itp_asplos25_AE/dump/srv612_ap.pdst...
Saving data large page distribution to /home/bsc/bsc018186/scratch/itp_asplos25_AE/dump/srv612_ap.pdst...
=== Simulation ===
CPU 0 runs /gpfs/projects/bsc18/MN4/bsc18/romol/ChampSim/traces/qualcomm_srv/srv612_ap.champsimtrace.xz

Region of Interest Statistics

CPU 0 cumulative IPC: 0.411471 instructions: 100000000 cycles: 243030825
CPU 0 Branch Prediction Accuracy: 96.6997% MPKI: 7.15989 Average ROB Occupancy at Mispredict: 86.7924
Branch type MPKI
BRANCH_DIRECT_JUMP: 0.0386401
BRANCH_INDIRECT: 3.27509
BRANCH_CONDITIONAL: 3.54837
BRANCH_DIRECT_CALL: 0.0661401
BRANCH_INDIRECT_CALL: 0.173461
BRANCH_RETURN: 0.0582001

Instructions large pages: 0
Instructions small pages: 1273
Large page distribution for instructions: 0%

Data large pages: 0
Data small pages: 21910
Large page distribution for data: 0%

cpu0_L1I TOTAL       ACCESS:   15110231  HIT:   14629353  MISS:     480878  iACCESS:   15110231  iHIT:   14629353  iMISS:     480878  dACCESS:          0  dHIT:          0  dMISS:          0  itACCESS:          0  itHIT:          0  itMISS:          0  dtACCESS:          0  dtHIT:          0  dtMISS:          0
cpu0_L1I LOAD         ACCESS:     878643  HIT:     733721  MISS:     144922  iACCESS:     878643  iHIT:     733721  iMISS:     144922  dACCESS:          0  dHIT:          0  dMISS:          0  itACCESS:          0  itHIT:          0  itMISS:          0  dtACCESS:          0  dtHIT:          0  dtMISS:          0
cpu0_L1I RFO          ACCESS:          0  HIT:          0  MISS:          0  iACCESS:          0  iHIT:          0  iMISS:          0  dACCESS:          0  dHIT:          0  dMISS:          0  itACCESS:          0  itHIT:          0  itMISS:          0  dtACCESS:          0  dtHIT:          0  dtMISS:          0
cpu0_L1I PREFETCH     ACCESS:   14231588  HIT:   13895632  MISS:     335956  iACCESS:   14231588  iHIT:   13895632  iMISS:     335956  dACCESS:          0  dHIT:          0  dMISS:          0  itACCESS:          0  itHIT:          0  itMISS:          0  dtACCESS:          0  dtHIT:          0  dtMISS:          0
cpu0_L1I WRITE        ACCESS:          0  HIT:          0  MISS:          0  iACCESS:          0  iHIT:          0  iMISS:          0  dACCESS:          0  dHIT:          0  dMISS:          0  itACCESS:          0  itHIT:          0  itMISS:          0  dtACCESS:          0  dtHIT:          0  dtMISS:          0
cpu0_L1I TRANSLATION  ACCESS:          0  HIT:          0  MISS:          0  iACCESS:          0  iHIT:          0  iMISS:          0  dACCESS:          0  dHIT:          0  dMISS:          0  itACCESS:          0  itHIT:          0  itMISS:          0  dtACCESS:          0  dtHIT:          0  dtMISS:          0
cpu0_L1I PREFETCH  REQUESTED:   14440189  ISSUED:   14434909  CROSSED:          0  USEFUL:      94929  USELESS:      35744
cpu0_L1I AVERAGE iMISS LATENCY: 20.0225 cycles
cpu0_L1I AVERAGE dMISS LATENCY: 0 cycles
cpu0_L1I AVERAGE itMISS LATENCY: 0 cycles
cpu0_L1I AVERAGE dtMISS LATENCY: 0 cycles
cpu0_L1I PAGE CROSSINGS (TLB HIT):         0 
cpu0_L1I PAGE CROSSINGS (TLB MISS):         0 
cpu0_L1I AVERAGE MISS LATENCY: 20.0225 cycles
cpu0_ITLB TOTAL       ACCESS:   13537537  HIT:   13416012  MISS:     121525  iACCESS:   13537537  iHIT:   13416012  iMISS:     121525  dACCESS:          0  dHIT:          0  dMISS:          0  itACCESS:          0  itHIT:          0  itMISS:          0  dtACCESS:          0  dtHIT:          0  dtMISS:          0
cpu0_ITLB LOAD         ACCESS:   13537537  HIT:   13416012  MISS:     121525  iACCESS:   13537537  iHIT:   13416012  iMISS:     121525  dACCESS:          0  dHIT:          0  dMISS:          0  itACCESS:          0  itHIT:          0  itMISS:          0  dtACCESS:          0  dtHIT:          0  dtMISS:          0
cpu0_ITLB RFO          ACCESS:          0  HIT:          0  MISS:          0  iACCESS:          0  iHIT:          0  iMISS:          0  dACCESS:          0  dHIT:          0  dMISS:          0  itACCESS:          0  itHIT:          0  itMISS:          0  dtACCESS:          0  dtHIT:          0  dtMISS:          0
cpu0_ITLB PREFETCH     ACCESS:          0  HIT:          0  MISS:          0  iACCESS:          0  iHIT:          0  iMISS:          0  dACCESS:          0  dHIT:          0  dMISS:          0  itACCESS:          0  itHIT:          0  itMISS:          0  dtACCESS:          0  dtHIT:          0  dtMISS:          0
cpu0_ITLB WRITE        ACCESS:          0  HIT:          0  MISS:          0  iACCESS:          0  iHIT:          0  iMISS:          0  dACCESS:          0  dHIT:          0  dMISS:          0  itACCESS:          0  itHIT:          0  itMISS:          0  dtACCESS:          0  dtHIT:          0  dtMISS:          0
cpu0_ITLB TRANSLATION  ACCESS:          0  HIT:          0  MISS:          0  iACCESS:          0  iHIT:          0  iMISS:          0  dACCESS:          0  dHIT:          0  dMISS:          0  itACCESS:          0  itHIT:          0  itMISS:          0  dtACCESS:          0  dtHIT:          0  dtMISS:          0
cpu0_ITLB PREFETCH  REQUESTED:          0  ISSUED:          0  CROSSED:          0  USEFUL:      16498  USELESS:       4084
cpu0_ITLB AVERAGE iMISS LATENCY: 7.17515 cycles
cpu0_ITLB AVERAGE dMISS LATENCY: 0 cycles
cpu0_ITLB AVERAGE itMISS LATENCY: 0 cycles
cpu0_ITLB AVERAGE dtMISS LATENCY: 0 cycles
cpu0_ITLB PAGE CROSSINGS (TLB HIT):         0 
cpu0_ITLB PAGE CROSSINGS (TLB MISS):         0 
cpu0_ITLB AVERAGE MISS LATENCY: 7.17515 cycles
cpu0_DTLB TOTAL       ACCESS:   27381012  HIT:   22648813  MISS:    4732199  iACCESS:          0  iHIT:          0  iMISS:          0  dACCESS:   27381012  dHIT:   22648813  dMISS:    4732199  itACCESS:          0  itHIT:          0  itMISS:          0  dtACCESS:          0  dtHIT:          0  dtMISS:          0
cpu0_DTLB LOAD         ACCESS:   27381012  HIT:   22648813  MISS:    4732199  iACCESS:          0  iHIT:          0  iMISS:          0  dACCESS:   27381012  dHIT:   22648813  dMISS:    4732199  itACCESS:          0  itHIT:          0  itMISS:          0  dtACCESS:          0  dtHIT:          0  dtMISS:          0
cpu0_DTLB RFO          ACCESS:          0  HIT:          0  MISS:          0  iACCESS:          0  iHIT:          0  iMISS:          0  dACCESS:          0  dHIT:          0  dMISS:          0  itACCESS:          0  itHIT:          0  itMISS:          0  dtACCESS:          0  dtHIT:          0  dtMISS:          0
cpu0_DTLB PREFETCH     ACCESS:          0  HIT:          0  MISS:          0  iACCESS:          0  iHIT:          0  iMISS:          0  dACCESS:          0  dHIT:          0  dMISS:          0  itACCESS:          0  itHIT:          0  itMISS:          0  dtACCESS:          0  dtHIT:          0  dtMISS:          0
cpu0_DTLB WRITE        ACCESS:          0  HIT:          0  MISS:          0  iACCESS:          0  iHIT:          0  iMISS:          0  dACCESS:          0  dHIT:          0  dMISS:          0  itACCESS:          0  itHIT:          0  itMISS:          0  dtACCESS:          0  dtHIT:          0  dtMISS:          0
cpu0_DTLB TRANSLATION  ACCESS:          0  HIT:          0  MISS:          0  iACCESS:          0  iHIT:          0  iMISS:          0  dACCESS:          0  dHIT:          0  dMISS:          0  itACCESS:          0  itHIT:          0  itMISS:          0  dtACCESS:          0  dtHIT:          0  dtMISS:          0
cpu0_DTLB PREFETCH  REQUESTED:          0  ISSUED:          0  CROSSED:          0  USEFUL:          0  USELESS:          0
cpu0_DTLB AVERAGE iMISS LATENCY: 0 cycles
cpu0_DTLB AVERAGE dMISS LATENCY: 6.75485 cycles
cpu0_DTLB AVERAGE itMISS LATENCY: 0 cycles
cpu0_DTLB AVERAGE dtMISS LATENCY: 0 cycles
cpu0_DTLB PAGE CROSSINGS (TLB HIT):         0 
cpu0_DTLB PAGE CROSSINGS (TLB MISS):         0 
cpu0_DTLB AVERAGE MISS LATENCY: 6.75485 cycles
cpu0_STLB TOTAL       ACCESS:    2955595  HIT:    2834588  MISS:     121007  iACCESS:      20584  iHIT:      14499  iMISS:       6085  dACCESS:    2935011  dHIT:    2820089  dMISS:     114922  itACCESS:          0  itHIT:          0  itMISS:          0  dtACCESS:          0  dtHIT:          0  dtMISS:          0
cpu0_STLB LOAD         ACCESS:    2955595  HIT:    2834588  MISS:     121007  iACCESS:      20584  iHIT:      14499  iMISS:       6085  dACCESS:    2935011  dHIT:    2820089  dMISS:     114922  itACCESS:          0  itHIT:          0  itMISS:          0  dtACCESS:          0  dtHIT:          0  dtMISS:          0
cpu0_STLB RFO          ACCESS:          0  HIT:          0  MISS:          0  iACCESS:          0  iHIT:          0  iMISS:          0  dACCESS:          0  dHIT:          0  dMISS:          0  itACCESS:          0  itHIT:          0  itMISS:          0  dtACCESS:          0  dtHIT:          0  dtMISS:          0
cpu0_STLB PREFETCH     ACCESS:          0  HIT:          0  MISS:          0  iACCESS:          0  iHIT:          0  iMISS:          0  dACCESS:          0  dHIT:          0  dMISS:          0  itACCESS:          0  itHIT:          0  itMISS:          0  dtACCESS:          0  dtHIT:          0  dtMISS:          0
cpu0_STLB WRITE        ACCESS:          0  HIT:          0  MISS:          0  iACCESS:          0  iHIT:          0  iMISS:          0  dACCESS:          0  dHIT:          0  dMISS:          0  itACCESS:          0  itHIT:          0  itMISS:          0  dtACCESS:          0  dtHIT:          0  dtMISS:          0
cpu0_STLB TRANSLATION  ACCESS:          0  HIT:          0  MISS:          0  iACCESS:          0  iHIT:          0  iMISS:          0  dACCESS:          0  dHIT:          0  dMISS:          0  itACCESS:          0  itHIT:          0  itMISS:          0  dtACCESS:          0  dtHIT:          0  dtMISS:          0
cpu0_STLB PREFETCH  REQUESTED:          0  ISSUED:          0  CROSSED:          0  USEFUL:          0  USELESS:          0
cpu0_STLB AVERAGE iMISS LATENCY: 5.83233 cycles
cpu0_STLB AVERAGE dMISS LATENCY: 67.1255 cycles
cpu0_STLB AVERAGE itMISS LATENCY: 0 cycles
cpu0_STLB AVERAGE dtMISS LATENCY: 0 cycles
cpu0_STLB PAGE CROSSINGS (TLB HIT):         0 
cpu0_STLB PAGE CROSSINGS (TLB MISS):         0 
cpu0_STLB AVERAGE MISS LATENCY: 72.9579 cycles
cpu0_L1D TOTAL       ACCESS:  163463099  HIT:   31954003  MISS:  131509096  iACCESS:          0  iHIT:          0  iMISS:          0  dACCESS:  162930068  dHIT:   31924467  dMISS:  131005601  itACCESS:       6613  itHIT:       1687  itMISS:       4926  dtACCESS:     526418  dtHIT:      27849  dtMISS:     498569
cpu0_L1D LOAD         ACCESS:   72103956  HIT:   16695659  MISS:   55408297  iACCESS:          0  iHIT:          0  iMISS:          0  dACCESS:   72103956  dHIT:   16695659  dMISS:   55408297  itACCESS:          0  itHIT:          0  itMISS:          0  dtACCESS:          0  dtHIT:          0  dtMISS:          0
cpu0_L1D RFO          ACCESS:          0  HIT:          0  MISS:          0  iACCESS:          0  iHIT:          0  iMISS:          0  dACCESS:          0  dHIT:          0  dMISS:          0  itACCESS:          0  itHIT:          0  itMISS:          0  dtACCESS:          0  dtHIT:          0  dtMISS:          0
cpu0_L1D PREFETCH     ACCESS:   84187458  HIT:    9821154  MISS:   74366304  iACCESS:          0  iHIT:          0  iMISS:          0  dACCESS:   84187458  dHIT:    9821154  dMISS:   74366304  itACCESS:          0  itHIT:          0  itMISS:          0  dtACCESS:          0  dtHIT:          0  dtMISS:          0
cpu0_L1D WRITE        ACCESS:    6638654  HIT:    5407654  MISS:    1231000  iACCESS:          0  iHIT:          0  iMISS:          0  dACCESS:    6638654  dHIT:    5407654  dMISS:    1231000  itACCESS:          0  itHIT:          0  itMISS:          0  dtACCESS:          0  dtHIT:          0  dtMISS:          0
cpu0_L1D TRANSLATION  ACCESS:     533031  HIT:      29536  MISS:     503495  iACCESS:          0  iHIT:          0  iMISS:          0  dACCESS:          0  dHIT:          0  dMISS:          0  itACCESS:       6613  itHIT:       1687  itMISS:       4926  dtACCESS:     526418  dtHIT:      27849  dtMISS:     498569
cpu0_L1D PREFETCH  REQUESTED:   72103956  ISSUED:   29326707  CROSSED:          0  USEFUL:     167202  USELESS:    1307767
cpu0_L1D AVERAGE iMISS LATENCY: 0 cycles
cpu0_L1D AVERAGE dMISS LATENCY: 17.1002 cycles
cpu0_L1D AVERAGE itMISS LATENCY: 0.00486689 cycles
cpu0_L1D AVERAGE dtMISS LATENCY: 0.0375844 cycles
cpu0_L1D PAGE CROSSINGS (TLB HIT):         0 
cpu0_L1D PAGE CROSSINGS (TLB MISS):         0 
cpu0_L1D AVERAGE MISS LATENCY: 17.1427 cycles
cpu0_L2C TOTAL       ACCESS:    6244838  HIT:    1457607  MISS:    4787231  iACCESS:     172661  iHIT:      62334  iMISS:     110327  dACCESS:    5996712  dHIT:    1342421  dMISS:    4654291  itACCESS:       4836  itHIT:       1820  itMISS:       3016  dtACCESS:      70629  dtHIT:      51032  dtMISS:      19597
cpu0_L2C LOAD         ACCESS:    3866101  HIT:    1056052  MISS:    2810049  iACCESS:      43358  iHIT:      14505  iMISS:      28853  dACCESS:    3822743  dHIT:    1041547  dMISS:    2781196  itACCESS:          0  itHIT:          0  itMISS:          0  dtACCESS:          0  dtHIT:          0  dtMISS:          0
cpu0_L2C RFO          ACCESS:     113963  HIT:      27154  MISS:      86809  iACCESS:          0  iHIT:          0  iMISS:          0  dACCESS:     113963  dHIT:      27154  dMISS:      86809  itACCESS:          0  itHIT:          0  itMISS:          0  dtACCESS:          0  dtHIT:          0  dtMISS:          0
cpu0_L2C PREFETCH     ACCESS:    2081617  HIT:     277681  MISS:    1803936  iACCESS:     129303  iHIT:      47829  iMISS:      81474  dACCESS:    1952314  dHIT:     229852  dMISS:    1722462  itACCESS:          0  itHIT:          0  itMISS:          0  dtACCESS:          0  dtHIT:          0  dtMISS:          0
cpu0_L2C WRITE        ACCESS:     107692  HIT:      43868  MISS:      63824  iACCESS:          0  iHIT:          0  iMISS:          0  dACCESS:     107692  dHIT:      43868  dMISS:      63824  itACCESS:          0  itHIT:          0  itMISS:          0  dtACCESS:          0  dtHIT:          0  dtMISS:          0
cpu0_L2C TRANSLATION  ACCESS:      75465  HIT:      52852  MISS:      22613  iACCESS:          0  iHIT:          0  iMISS:          0  dACCESS:          0  dHIT:          0  dMISS:          0  itACCESS:       4836  itHIT:       1820  itMISS:       3016  dtACCESS:      70629  dtHIT:      51032  dtMISS:      19597
cpu0_L2C PREFETCH  REQUESTED:     497588  ISSUED:     496538  CROSSED:          0  USEFUL:      66092  USELESS:     224589
cpu0_L2C AVERAGE iMISS LATENCY: 1.69124 cycles
cpu0_L2C AVERAGE dMISS LATENCY: 468.075 cycles
cpu0_L2C AVERAGE itMISS LATENCY: 0.12394 cycles
cpu0_L2C AVERAGE dtMISS LATENCY: 0.894086 cycles
cpu0_L2C PAGE CROSSINGS (TLB HIT):         0 
cpu0_L2C PAGE CROSSINGS (TLB MISS):         0 
cpu0_L2C AVERAGE MISS LATENCY: 470.785 cycles
LLC TOTAL       ACCESS:    4582487  HIT:    2358677  MISS:    2223810  iACCESS:     107804  iHIT:      75401  iMISS:      32403  dACCESS:    4452070  dHIT:    2277235  dMISS:    2174835  itACCESS:       3016  itHIT:        398  itMISS:       2618  dtACCESS:      19597  dtHIT:       5643  dtMISS:      13954
LLC LOAD         ACCESS:    2807400  HIT:    1666894  MISS:    1140506  iACCESS:      28806  iHIT:      21659  iMISS:       7147  dACCESS:    2778594  dHIT:    1645235  dMISS:    1133359  itACCESS:          0  itHIT:          0  itMISS:          0  dtACCESS:          0  dtHIT:          0  dtMISS:          0
LLC RFO          ACCESS:      86786  HIT:       7626  MISS:      79160  iACCESS:          0  iHIT:          0  iMISS:          0  dACCESS:      86786  dHIT:       7626  dMISS:      79160  itACCESS:          0  itHIT:          0  itMISS:          0  dtACCESS:          0  dtHIT:          0  dtMISS:          0
LLC PREFETCH     ACCESS:    1576993  HIT:     593384  MISS:     983609  iACCESS:      78998  iHIT:      53742  iMISS:      25256  dACCESS:    1497995  dHIT:     539642  dMISS:     958353  itACCESS:          0  itHIT:          0  itMISS:          0  dtACCESS:          0  dtHIT:          0  dtMISS:          0
LLC WRITE        ACCESS:      88695  HIT:      84732  MISS:       3963  iACCESS:          0  iHIT:          0  iMISS:          0  dACCESS:      88695  dHIT:      84732  dMISS:       3963  itACCESS:          0  itHIT:          0  itMISS:          0  dtACCESS:          0  dtHIT:          0  dtMISS:          0
LLC TRANSLATION  ACCESS:      22613  HIT:       6041  MISS:      16572  iACCESS:          0  iHIT:          0  iMISS:          0  dACCESS:          0  dHIT:          0  dMISS:          0  itACCESS:       3016  itHIT:        398  itMISS:       2618  dtACCESS:      19597  dtHIT:       5643  dtMISS:      13954
LLC PREFETCH  REQUESTED:          0  ISSUED:          0  CROSSED:          0  USEFUL:          0  USELESS:          0
LLC AVERAGE iMISS LATENCY: 2.69866 cycles
LLC AVERAGE dMISS LATENCY: 969.742 cycles
LLC AVERAGE itMISS LATENCY: 0.240015 cycles
LLC AVERAGE dtMISS LATENCY: 1.75208 cycles
LLC PAGE CROSSINGS (TLB HIT):         0 
LLC PAGE CROSSINGS (TLB MISS):         0 
LLC AVERAGE MISS LATENCY: 974.433 cycles

PageTableWalker TOTAL       ACCESS:      30559  
PageTableWalker AVERAGE LATENCY: 3.30181 cycles
PageTableWalker TOTAL LATENCY: 100900 cycles

DRAM Statistics
Channel 0
 RQ ROW_BUFFER_HIT:     397994
  ROW_BUFFER_MISS:    1819021
 AVG DBUS CONGESTED CYCLE:    3.88061
 WQ ROW_BUFFER_HIT:      11564
  ROW_BUFFER_MISS:      68092  FULL:          0

