last_page:0x200000000000000
VMEM_RES_CAP:0x100000
PAGE_SIZE:4096
LOG2_PAGE_SIZE:12
LOG2_PAGE_TABLE_SIZE:9
page_table_levels:5
WARNING: physical memory size is smaller than virtual memory size
FDiP enabled with aggresivity 16

*** ChampSim Multicore Out-of-Order Simulator ***

Warmup Instructions: 50000000
Simulation Instructions: 100000000
Number of CPUs: 1
Small page size: 4096
Large page size: 2097152

CPU 0 Bimodal branch predictor
Basic BTB sets: 1024 ways: 8 indirect buffer size: 4096 RAS size: 64
Instruction page size distrubution: 0
Loading instruction page size distribution from /home/bsc/bsc018186/scratch/itp_asplos25_AE/dump/srv626_ap.pdst
Data page size distrubution: 0
Loading data page size distribution from /home/bsc/bsc018186/scratch/itp_asplos25_AE/dump/srv626_ap.pdst
cpu0_L2C IP-based stride prefetcher
cpu0_L1D next line prefetcher
CHiRPing...
cpu0_L1I next line prefetcher
Off-chip DRAM Size: 4 GiB Channels: 1 Width: 64-bit Data Rate: 3200 MT/s
Heartbeat CPU 0 instructions: 10000002 cycles: 2500154 heartbeat IPC: 3.99976 cumulative IPC: 3.99976 (Simulation time: 0 hr 0 min 38 sec) 
Heartbeat CPU 0 instructions: 20000003 cycles: 5000155 heartbeat IPC: 4 cumulative IPC: 3.99988 (Simulation time: 0 hr 1 min 18 sec) 
Heartbeat CPU 0 instructions: 30000000 cycles: 7500155 heartbeat IPC: 4 cumulative IPC: 3.99992 (Simulation time: 0 hr 1 min 59 sec) 
Heartbeat CPU 0 instructions: 40000002 cycles: 10000202 heartbeat IPC: 3.99993 cumulative IPC: 3.99992 (Simulation time: 0 hr 2 min 40 sec) 
Heartbeat CPU 0 instructions: 50000001 cycles: 12500243 heartbeat IPC: 3.99994 cumulative IPC: 3.99993 (Simulation time: 0 hr 3 min 21 sec) 
Warmup finished CPU 0 instructions: 50000001 cycles: 12500244 cumulative IPC: 3.99993 (Simulation time: 0 hr 3 min 21 sec) 

Warmup complete CPU 0 instructions: 50000001 cycles: 12500244 (Simulation time: 0 hr 3 min 21 sec) 

Heartbeat CPU 0 instructions: 60000002 cycles: 26285504 heartbeat IPC: 0.725413 cumulative IPC: 0.725413 (Simulation time: 0 hr 4 min 25 sec) 
Heartbeat CPU 0 instructions: 70000002 cycles: 40841286 heartbeat IPC: 0.687013 cumulative IPC: 0.705691 (Simulation time: 0 hr 5 min 30 sec) 
Heartbeat CPU 0 instructions: 80000003 cycles: 54894651 heartbeat IPC: 0.711574 cumulative IPC: 0.707641 (Simulation time: 0 hr 6 min 34 sec) 
Heartbeat CPU 0 instructions: 90000001 cycles: 68479169 heartbeat IPC: 0.736132 cumulative IPC: 0.714555 (Simulation time: 0 hr 7 min 36 sec) 
Heartbeat CPU 0 instructions: 100000004 cycles: 82830402 heartbeat IPC: 0.696805 cumulative IPC: 0.710933 (Simulation time: 0 hr 8 min 39 sec) 
*** Reached end of trace: /gpfs/projects/bsc18/MN4/bsc18/romol/ChampSim/traces/qualcomm_srv/srv626_ap.champsimtrace.xz
Heartbeat CPU 0 instructions: 110000000 cycles: 96746267 heartbeat IPC: 0.718604 cumulative IPC: 0.7122 (Simulation time: 0 hr 9 min 40 sec) 
Heartbeat CPU 0 instructions: 120000000 cycles: 111028864 heartbeat IPC: 0.700153 cumulative IPC: 0.710454 (Simulation time: 0 hr 10 min 40 sec) 
Heartbeat CPU 0 instructions: 130000001 cycles: 124880560 heartbeat IPC: 0.721934 cumulative IPC: 0.711869 (Simulation time: 0 hr 11 min 40 sec) 
Heartbeat CPU 0 instructions: 140000003 cycles: 138552226 heartbeat IPC: 0.73144 cumulative IPC: 0.713992 (Simulation time: 0 hr 12 min 40 sec) 
Heartbeat CPU 0 instructions: 150000004 cycles: 152286093 heartbeat IPC: 0.728128 cumulative IPC: 0.715381 (Simulation time: 0 hr 13 min 40 sec) 
Simulation finished CPU 0 instructions: 100000003 cycles: 139785850 cumulative IPC: 0.715381 (Simulation time: 0 hr 13 min 40 sec) 

Simulation complete CPU 0 instructions: 100000003 cycles: 139785850 (Simulation time: 0 hr 13 min 40 sec) 


ChampSim completed all CPUs

Saving instructions large page distribution to /home/bsc/bsc018186/scratch/itp_asplos25_AE/dump/srv626_ap.pdst...
Saving data large page distribution to /home/bsc/bsc018186/scratch/itp_asplos25_AE/dump/srv626_ap.pdst...
=== Simulation ===
CPU 0 runs /gpfs/projects/bsc18/MN4/bsc18/romol/ChampSim/traces/qualcomm_srv/srv626_ap.champsimtrace.xz

Region of Interest Statistics

CPU 0 cumulative IPC: 0.715381 instructions: 100000003 cycles: 139785850
CPU 0 Branch Prediction Accuracy: 83.4866% MPKI: 29.6305 Average ROB Occupancy at Mispredict: 12.2807
Branch type MPKI
BRANCH_DIRECT_JUMP: 0.94594
BRANCH_INDIRECT: 15.3924
BRANCH_CONDITIONAL: 9.68539
BRANCH_DIRECT_CALL: 1.80388
BRANCH_INDIRECT_CALL: 0.49011
BRANCH_RETURN: 1.31273

Instructions large pages: 0
Instructions small pages: 9702
Large page distribution for instructions: 0%

Data large pages: 0
Data small pages: 8873
Large page distribution for data: 0%

cpu0_L1I TOTAL       ACCESS:   35010986  HIT:   26527756  MISS:    8483230  iACCESS:   35010986  iHIT:   26527756  iMISS:    8483230  dACCESS:          0  dHIT:          0  dMISS:          0  itACCESS:          0  itHIT:          0  itMISS:          0  dtACCESS:          0  dtHIT:          0  dtMISS:          0
cpu0_L1I LOAD         ACCESS:   10214925  HIT:    7835250  MISS:    2379675  iACCESS:   10214925  iHIT:    7835250  iMISS:    2379675  dACCESS:          0  dHIT:          0  dMISS:          0  itACCESS:          0  itHIT:          0  itMISS:          0  dtACCESS:          0  dtHIT:          0  dtMISS:          0
cpu0_L1I RFO          ACCESS:          0  HIT:          0  MISS:          0  iACCESS:          0  iHIT:          0  iMISS:          0  dACCESS:          0  dHIT:          0  dMISS:          0  itACCESS:          0  itHIT:          0  itMISS:          0  dtACCESS:          0  dtHIT:          0  dtMISS:          0
cpu0_L1I PREFETCH     ACCESS:   24796061  HIT:   18692506  MISS:    6103555  iACCESS:   24796061  iHIT:   18692506  iMISS:    6103555  dACCESS:          0  dHIT:          0  dMISS:          0  itACCESS:          0  itHIT:          0  itMISS:          0  dtACCESS:          0  dtHIT:          0  dtMISS:          0
cpu0_L1I WRITE        ACCESS:          0  HIT:          0  MISS:          0  iACCESS:          0  iHIT:          0  iMISS:          0  dACCESS:          0  dHIT:          0  dMISS:          0  itACCESS:          0  itHIT:          0  itMISS:          0  dtACCESS:          0  dtHIT:          0  dtMISS:          0
cpu0_L1I TRANSLATION  ACCESS:          0  HIT:          0  MISS:          0  iACCESS:          0  iHIT:          0  iMISS:          0  dACCESS:          0  dHIT:          0  dMISS:          0  itACCESS:          0  itHIT:          0  itMISS:          0  dtACCESS:          0  dtHIT:          0  dtMISS:          0
cpu0_L1I PREFETCH  REQUESTED:   27090136  ISSUED:   27088382  CROSSED:          0  USEFUL:    1933537  USELESS:     633694
cpu0_L1I AVERAGE iMISS LATENCY: 13.2869 cycles
cpu0_L1I AVERAGE dMISS LATENCY: 0 cycles
cpu0_L1I AVERAGE itMISS LATENCY: 0 cycles
cpu0_L1I AVERAGE dtMISS LATENCY: 0 cycles
cpu0_L1I PAGE CROSSINGS (TLB HIT):         0 
cpu0_L1I PAGE CROSSINGS (TLB MISS):         0 
cpu0_L1I AVERAGE MISS LATENCY: 13.2869 cycles
cpu0_ITLB TOTAL       ACCESS:   28995274  HIT:   27006896  MISS:    1988378  iACCESS:   28995274  iHIT:   27006896  iMISS:    1988378  dACCESS:          0  dHIT:          0  dMISS:          0  itACCESS:          0  itHIT:          0  itMISS:          0  dtACCESS:          0  dtHIT:          0  dtMISS:          0
cpu0_ITLB LOAD         ACCESS:   28995274  HIT:   27006896  MISS:    1988378  iACCESS:   28995274  iHIT:   27006896  iMISS:    1988378  dACCESS:          0  dHIT:          0  dMISS:          0  itACCESS:          0  itHIT:          0  itMISS:          0  dtACCESS:          0  dtHIT:          0  dtMISS:          0
cpu0_ITLB RFO          ACCESS:          0  HIT:          0  MISS:          0  iACCESS:          0  iHIT:          0  iMISS:          0  dACCESS:          0  dHIT:          0  dMISS:          0  itACCESS:          0  itHIT:          0  itMISS:          0  dtACCESS:          0  dtHIT:          0  dtMISS:          0
cpu0_ITLB PREFETCH     ACCESS:          0  HIT:          0  MISS:          0  iACCESS:          0  iHIT:          0  iMISS:          0  dACCESS:          0  dHIT:          0  dMISS:          0  itACCESS:          0  itHIT:          0  itMISS:          0  dtACCESS:          0  dtHIT:          0  dtMISS:          0
cpu0_ITLB WRITE        ACCESS:          0  HIT:          0  MISS:          0  iACCESS:          0  iHIT:          0  iMISS:          0  dACCESS:          0  dHIT:          0  dMISS:          0  itACCESS:          0  itHIT:          0  itMISS:          0  dtACCESS:          0  dtHIT:          0  dtMISS:          0
cpu0_ITLB TRANSLATION  ACCESS:          0  HIT:          0  MISS:          0  iACCESS:          0  iHIT:          0  iMISS:          0  dACCESS:          0  dHIT:          0  dMISS:          0  itACCESS:          0  itHIT:          0  itMISS:          0  dtACCESS:          0  dtHIT:          0  dtMISS:          0
cpu0_ITLB PREFETCH  REQUESTED:          0  ISSUED:          0  CROSSED:          0  USEFUL:     325338  USELESS:      62108
cpu0_ITLB AVERAGE iMISS LATENCY: 2.89361 cycles
cpu0_ITLB AVERAGE dMISS LATENCY: 0 cycles
cpu0_ITLB AVERAGE itMISS LATENCY: 0 cycles
cpu0_ITLB AVERAGE dtMISS LATENCY: 0 cycles
cpu0_ITLB PAGE CROSSINGS (TLB HIT):         0 
cpu0_ITLB PAGE CROSSINGS (TLB MISS):         0 
cpu0_ITLB AVERAGE MISS LATENCY: 2.89361 cycles
cpu0_DTLB TOTAL       ACCESS:   27708490  HIT:   25670323  MISS:    2038167  iACCESS:          0  iHIT:          0  iMISS:          0  dACCESS:   27708490  dHIT:   25670323  dMISS:    2038167  itACCESS:          0  itHIT:          0  itMISS:          0  dtACCESS:          0  dtHIT:          0  dtMISS:          0
cpu0_DTLB LOAD         ACCESS:   27708490  HIT:   25670323  MISS:    2038167  iACCESS:          0  iHIT:          0  iMISS:          0  dACCESS:   27708490  dHIT:   25670323  dMISS:    2038167  itACCESS:          0  itHIT:          0  itMISS:          0  dtACCESS:          0  dtHIT:          0  dtMISS:          0
cpu0_DTLB RFO          ACCESS:          0  HIT:          0  MISS:          0  iACCESS:          0  iHIT:          0  iMISS:          0  dACCESS:          0  dHIT:          0  dMISS:          0  itACCESS:          0  itHIT:          0  itMISS:          0  dtACCESS:          0  dtHIT:          0  dtMISS:          0
cpu0_DTLB PREFETCH     ACCESS:          0  HIT:          0  MISS:          0  iACCESS:          0  iHIT:          0  iMISS:          0  dACCESS:          0  dHIT:          0  dMISS:          0  itACCESS:          0  itHIT:          0  itMISS:          0  dtACCESS:          0  dtHIT:          0  dtMISS:          0
cpu0_DTLB WRITE        ACCESS:          0  HIT:          0  MISS:          0  iACCESS:          0  iHIT:          0  iMISS:          0  dACCESS:          0  dHIT:          0  dMISS:          0  itACCESS:          0  itHIT:          0  itMISS:          0  dtACCESS:          0  dtHIT:          0  dtMISS:          0
cpu0_DTLB TRANSLATION  ACCESS:          0  HIT:          0  MISS:          0  iACCESS:          0  iHIT:          0  iMISS:          0  dACCESS:          0  dHIT:          0  dMISS:          0  itACCESS:          0  itHIT:          0  itMISS:          0  dtACCESS:          0  dtHIT:          0  dtMISS:          0
cpu0_DTLB PREFETCH  REQUESTED:          0  ISSUED:          0  CROSSED:          0  USEFUL:          0  USELESS:          0
cpu0_DTLB AVERAGE iMISS LATENCY: 0 cycles
cpu0_DTLB AVERAGE dMISS LATENCY: 10.0514 cycles
cpu0_DTLB AVERAGE itMISS LATENCY: 0 cycles
cpu0_DTLB AVERAGE dtMISS LATENCY: 0 cycles
cpu0_DTLB PAGE CROSSINGS (TLB HIT):         0 
cpu0_DTLB PAGE CROSSINGS (TLB MISS):         0 
cpu0_DTLB AVERAGE MISS LATENCY: 10.0514 cycles
cpu0_STLB TOTAL       ACCESS:    1639483  HIT:    1480782  MISS:     158701  iACCESS:     387489  iHIT:     332262  iMISS:      55227  dACCESS:    1251994  dHIT:    1148520  dMISS:     103474  itACCESS:          0  itHIT:          0  itMISS:          0  dtACCESS:          0  dtHIT:          0  dtMISS:          0
cpu0_STLB LOAD         ACCESS:    1639483  HIT:    1480782  MISS:     158701  iACCESS:     387489  iHIT:     332262  iMISS:      55227  dACCESS:    1251994  dHIT:    1148520  dMISS:     103474  itACCESS:          0  itHIT:          0  itMISS:          0  dtACCESS:          0  dtHIT:          0  dtMISS:          0
cpu0_STLB RFO          ACCESS:          0  HIT:          0  MISS:          0  iACCESS:          0  iHIT:          0  iMISS:          0  dACCESS:          0  dHIT:          0  dMISS:          0  itACCESS:          0  itHIT:          0  itMISS:          0  dtACCESS:          0  dtHIT:          0  dtMISS:          0
cpu0_STLB PREFETCH     ACCESS:          0  HIT:          0  MISS:          0  iACCESS:          0  iHIT:          0  iMISS:          0  dACCESS:          0  dHIT:          0  dMISS:          0  itACCESS:          0  itHIT:          0  itMISS:          0  dtACCESS:          0  dtHIT:          0  dtMISS:          0
cpu0_STLB WRITE        ACCESS:          0  HIT:          0  MISS:          0  iACCESS:          0  iHIT:          0  iMISS:          0  dACCESS:          0  dHIT:          0  dMISS:          0  itACCESS:          0  itHIT:          0  itMISS:          0  dtACCESS:          0  dtHIT:          0  dtMISS:          0
cpu0_STLB TRANSLATION  ACCESS:          0  HIT:          0  MISS:          0  iACCESS:          0  iHIT:          0  iMISS:          0  dACCESS:          0  dHIT:          0  dMISS:          0  itACCESS:          0  itHIT:          0  itMISS:          0  dtACCESS:          0  dtHIT:          0  dtMISS:          0
cpu0_STLB PREFETCH  REQUESTED:          0  ISSUED:          0  CROSSED:          0  USEFUL:          0  USELESS:          0
cpu0_STLB AVERAGE iMISS LATENCY: 17.0033 cycles
cpu0_STLB AVERAGE dMISS LATENCY: 66.2843 cycles
cpu0_STLB AVERAGE itMISS LATENCY: 0 cycles
cpu0_STLB AVERAGE dtMISS LATENCY: 0 cycles
cpu0_STLB PAGE CROSSINGS (TLB HIT):         0 
cpu0_STLB PAGE CROSSINGS (TLB MISS):         0 
cpu0_STLB AVERAGE MISS LATENCY: 83.2876 cycles
cpu0_L1D TOTAL       ACCESS:   41418134  HIT:   37914225  MISS:    3503909  iACCESS:          0  iHIT:          0  iMISS:          0  dACCESS:   41197251  dHIT:   37895438  dMISS:    3301813  itACCESS:      59874  itHIT:       8804  itMISS:      51070  dtACCESS:     161009  dtHIT:       9983  dtMISS:     151026
cpu0_L1D LOAD         ACCESS:   18931705  HIT:   17415379  MISS:    1516326  iACCESS:          0  iHIT:          0  iMISS:          0  dACCESS:   18931705  dHIT:   17415379  dMISS:    1516326  itACCESS:          0  itHIT:          0  itMISS:          0  dtACCESS:          0  dtHIT:          0  dtMISS:          0
cpu0_L1D RFO          ACCESS:          0  HIT:          0  MISS:          0  iACCESS:          0  iHIT:          0  iMISS:          0  dACCESS:          0  dHIT:          0  dMISS:          0  itACCESS:          0  itHIT:          0  itMISS:          0  dtACCESS:          0  dtHIT:          0  dtMISS:          0
cpu0_L1D PREFETCH     ACCESS:   12151774  HIT:   10786445  MISS:    1365329  iACCESS:          0  iHIT:          0  iMISS:          0  dACCESS:   12151774  dHIT:   10786445  dMISS:    1365329  itACCESS:          0  itHIT:          0  itMISS:          0  dtACCESS:          0  dtHIT:          0  dtMISS:          0
cpu0_L1D WRITE        ACCESS:   10113772  HIT:    9693614  MISS:     420158  iACCESS:          0  iHIT:          0  iMISS:          0  dACCESS:   10113772  dHIT:    9693614  dMISS:     420158  itACCESS:          0  itHIT:          0  itMISS:          0  dtACCESS:          0  dtHIT:          0  dtMISS:          0
cpu0_L1D TRANSLATION  ACCESS:     220883  HIT:      18787  MISS:     202096  iACCESS:          0  iHIT:          0  iMISS:          0  dACCESS:          0  dHIT:          0  dMISS:          0  itACCESS:      59874  itHIT:       8804  itMISS:      51070  dtACCESS:     161009  dtHIT:       9983  dtMISS:     151026
cpu0_L1D PREFETCH  REQUESTED:   18931705  ISSUED:   16967171  CROSSED:          0  USEFUL:     309130  USELESS:     708280
cpu0_L1D AVERAGE iMISS LATENCY: 0 cycles
cpu0_L1D AVERAGE dMISS LATENCY: 32.5698 cycles
cpu0_L1D AVERAGE itMISS LATENCY: 0.635543 cycles
cpu0_L1D AVERAGE dtMISS LATENCY: 2.3628 cycles
cpu0_L1D PAGE CROSSINGS (TLB HIT):         0 
cpu0_L1D PAGE CROSSINGS (TLB MISS):         0 
cpu0_L1D AVERAGE MISS LATENCY: 35.5682 cycles
cpu0_L2C TOTAL       ACCESS:    7014178  HIT:    1704276  MISS:    5309902  iACCESS:    3320126  iHIT:     865539  iMISS:    2454587  dACCESS:    3505698  dHIT:     726485  dMISS:    2779213  itACCESS:      51070  itHIT:      37248  itMISS:      13822  dtACCESS:     137284  dtHIT:      75004  dtMISS:      62280
cpu0_L2C LOAD         ACCESS:    1734184  HIT:     324282  MISS:    1409902  iACCESS:     791799  iHIT:     158087  iMISS:     633712  dACCESS:     942385  dHIT:     166195  dMISS:     776190  itACCESS:          0  itHIT:          0  itMISS:          0  dtACCESS:          0  dtHIT:          0  dtMISS:          0
cpu0_L2C RFO          ACCESS:     155481  HIT:      52802  MISS:     102679  iACCESS:          0  iHIT:          0  iMISS:          0  dACCESS:     155481  dHIT:      52802  dMISS:     102679  itACCESS:          0  itHIT:          0  itMISS:          0  dtACCESS:          0  dtHIT:          0  dtMISS:          0
cpu0_L2C PREFETCH     ACCESS:    4649653  HIT:    1072566  MISS:    3577087  iACCESS:    2528327  iHIT:     707452  iMISS:    1820875  dACCESS:    2121326  dHIT:     365114  dMISS:    1756212  itACCESS:          0  itHIT:          0  itMISS:          0  dtACCESS:          0  dtHIT:          0  dtMISS:          0
cpu0_L2C WRITE        ACCESS:     286506  HIT:     142374  MISS:     144132  iACCESS:          0  iHIT:          0  iMISS:          0  dACCESS:     286506  dHIT:     142374  dMISS:     144132  itACCESS:          0  itHIT:          0  itMISS:          0  dtACCESS:          0  dtHIT:          0  dtMISS:          0
cpu0_L2C TRANSLATION  ACCESS:     188354  HIT:     112252  MISS:      76102  iACCESS:          0  iHIT:          0  iMISS:          0  dACCESS:          0  dHIT:          0  dMISS:          0  itACCESS:      51070  itHIT:      37248  itMISS:      13822  dtACCESS:     137284  dtHIT:      75004  dtMISS:      62280
cpu0_L2C PREFETCH  REQUESTED:    1394231  ISSUED:    1394231  CROSSED:          0  USEFUL:     402568  USELESS:     380312
cpu0_L2C AVERAGE iMISS LATENCY: 15.3778 cycles
cpu0_L2C AVERAGE dMISS LATENCY: 24.9537 cycles
cpu0_L2C AVERAGE itMISS LATENCY: 0.33002 cycles
cpu0_L2C AVERAGE dtMISS LATENCY: 1.31329 cycles
cpu0_L2C PAGE CROSSINGS (TLB HIT):         0 
cpu0_L2C PAGE CROSSINGS (TLB MISS):         0 
cpu0_L2C AVERAGE MISS LATENCY: 41.9748 cycles
LLC TOTAL       ACCESS:    5183040  HIT:    4374397  MISS:     808643  iACCESS:    2395352  iHIT:    2147669  iMISS:     247683  dACCESS:    2711586  dHIT:    2191228  dMISS:     520358  itACCESS:      13822  itHIT:       5210  itMISS:       8612  dtACCESS:      62280  dtHIT:      30290  dtMISS:      31990
LLC LOAD         ACCESS:    1407672  HIT:    1234719  MISS:     172953  iACCESS:     631918  iHIT:     581442  iMISS:      50476  dACCESS:     775754  dHIT:     653277  dMISS:     122477  itACCESS:          0  itHIT:          0  itMISS:          0  dtACCESS:          0  dtHIT:          0  dtMISS:          0
LLC RFO          ACCESS:     102678  HIT:      65746  MISS:      36932  iACCESS:          0  iHIT:          0  iMISS:          0  dACCESS:     102678  dHIT:      65746  dMISS:      36932  itACCESS:          0  itHIT:          0  itMISS:          0  dtACCESS:          0  dtHIT:          0  dtMISS:          0
LLC PREFETCH     ACCESS:    3465638  HIT:    2915749  MISS:     549889  iACCESS:    1763434  iHIT:    1566227  iMISS:     197207  dACCESS:    1702204  dHIT:    1349522  dMISS:     352682  itACCESS:          0  itHIT:          0  itMISS:          0  dtACCESS:          0  dtHIT:          0  dtMISS:          0
LLC WRITE        ACCESS:     130950  HIT:     122683  MISS:       8267  iACCESS:          0  iHIT:          0  iMISS:          0  dACCESS:     130950  dHIT:     122683  dMISS:       8267  itACCESS:          0  itHIT:          0  itMISS:          0  dtACCESS:          0  dtHIT:          0  dtMISS:          0
LLC TRANSLATION  ACCESS:      76102  HIT:      35500  MISS:      40602  iACCESS:          0  iHIT:          0  iMISS:          0  dACCESS:          0  dHIT:          0  dMISS:          0  itACCESS:      13822  itHIT:       5210  itMISS:       8612  dtACCESS:      62280  dtHIT:      30290  dtMISS:      31990
LLC PREFETCH  REQUESTED:          0  ISSUED:          0  CROSSED:          0  USEFUL:          0  USELESS:          0
LLC AVERAGE iMISS LATENCY: 43.8085 cycles
LLC AVERAGE dMISS LATENCY: 102.16 cycles
LLC AVERAGE itMISS LATENCY: 1.83226 cycles
LLC AVERAGE dtMISS LATENCY: 7.12225 cycles
LLC PAGE CROSSINGS (TLB HIT):         0 
LLC PAGE CROSSINGS (TLB MISS):         0 
LLC AVERAGE MISS LATENCY: 154.923 cycles

PageTableWalker TOTAL       ACCESS:      80374  
PageTableWalker AVERAGE LATENCY: 4.46145 cycles
PageTableWalker TOTAL LATENCY: 358584 cycles

DRAM Statistics
Channel 0
 RQ ROW_BUFFER_HIT:     230400
  ROW_BUFFER_MISS:     569954
 AVG DBUS CONGESTED CYCLE:    3.61991
 WQ ROW_BUFFER_HIT:      15506
  ROW_BUFFER_MISS:      20483  FULL:          0

