last_page:0x200000000000000
VMEM_RES_CAP:0x100000
PAGE_SIZE:4096
LOG2_PAGE_SIZE:12
LOG2_PAGE_TABLE_SIZE:9
page_table_levels:5
WARNING: physical memory size is smaller than virtual memory size
FDiP enabled with aggresivity 16

*** ChampSim Multicore Out-of-Order Simulator ***

Warmup Instructions: 50000000
Simulation Instructions: 100000000
Number of CPUs: 1
Small page size: 4096
Large page size: 2097152

CPU 0 Bimodal branch predictor
Basic BTB sets: 1024 ways: 8 indirect buffer size: 4096 RAS size: 64
Instruction page size distrubution: 0
Loading instruction page size distribution from /home/bsc/bsc018186/scratch/itp_asplos25_AE/dump/srv61_ap.pdst
Data page size distrubution: 0
Loading data page size distribution from /home/bsc/bsc018186/scratch/itp_asplos25_AE/dump/srv61_ap.pdst
cpu0_L2C IP-based stride prefetcher
cpu0_L2C is using PTP replacement policy:
	TLB_STRESS_THRESHOLD:0
	PTE_EVICTION_RATIO:0
cpu0_L1D next line prefetcher
CHiRPing...
cpu0_L1I next line prefetcher
Off-chip DRAM Size: 4 GiB Channels: 1 Width: 64-bit Data Rate: 3200 MT/s
Heartbeat CPU 0 instructions: 10000000 cycles: 2500163 heartbeat IPC: 3.99974 cumulative IPC: 3.99974 (Simulation time: 0 hr 0 min 37 sec) 
Heartbeat CPU 0 instructions: 20000002 cycles: 5000276 heartbeat IPC: 3.99983 cumulative IPC: 3.99978 (Simulation time: 0 hr 1 min 17 sec) 
Heartbeat CPU 0 instructions: 30000002 cycles: 7500305 heartbeat IPC: 3.99996 cumulative IPC: 3.99984 (Simulation time: 0 hr 1 min 57 sec) 
Heartbeat CPU 0 instructions: 40000001 cycles: 10000401 heartbeat IPC: 3.99985 cumulative IPC: 3.99984 (Simulation time: 0 hr 2 min 37 sec) 
Heartbeat CPU 0 instructions: 50000003 cycles: 12500425 heartbeat IPC: 3.99997 cumulative IPC: 3.99987 (Simulation time: 0 hr 3 min 18 sec) 
Warmup finished CPU 0 instructions: 50000003 cycles: 12500426 cumulative IPC: 3.99987 (Simulation time: 0 hr 3 min 18 sec) 

Warmup complete CPU 0 instructions: 50000003 cycles: 12500426 (Simulation time: 0 hr 3 min 18 sec) 

Heartbeat CPU 0 instructions: 60000004 cycles: 30624105 heartbeat IPC: 0.551765 cumulative IPC: 0.551765 (Simulation time: 0 hr 4 min 26 sec) 
Heartbeat CPU 0 instructions: 70000001 cycles: 48953494 heartbeat IPC: 0.545572 cumulative IPC: 0.548651 (Simulation time: 0 hr 5 min 35 sec) 
Heartbeat CPU 0 instructions: 80000002 cycles: 66907663 heartbeat IPC: 0.556974 cumulative IPC: 0.551398 (Simulation time: 0 hr 6 min 44 sec) 
Heartbeat CPU 0 instructions: 90000000 cycles: 85153899 heartbeat IPC: 0.548059 cumulative IPC: 0.550559 (Simulation time: 0 hr 7 min 53 sec) 
Heartbeat CPU 0 instructions: 100000002 cycles: 103547922 heartbeat IPC: 0.543655 cumulative IPC: 0.549164 (Simulation time: 0 hr 9 min 3 sec) 
*** Reached end of trace: /gpfs/projects/bsc18/MN4/bsc18/romol/ChampSim/traces/qualcomm_srv/srv61_ap.champsimtrace.xz
Heartbeat CPU 0 instructions: 110000002 cycles: 121792598 heartbeat IPC: 0.548106 cumulative IPC: 0.548988 (Simulation time: 0 hr 10 min 13 sec) 
Heartbeat CPU 0 instructions: 120000000 cycles: 140064717 heartbeat IPC: 0.547282 cumulative IPC: 0.548743 (Simulation time: 0 hr 11 min 22 sec) 
Heartbeat CPU 0 instructions: 130000000 cycles: 157487094 heartbeat IPC: 0.573975 cumulative IPC: 0.551775 (Simulation time: 0 hr 12 min 31 sec) 
Heartbeat CPU 0 instructions: 140000004 cycles: 175750643 heartbeat IPC: 0.547539 cumulative IPC: 0.551301 (Simulation time: 0 hr 13 min 40 sec) 
Heartbeat CPU 0 instructions: 150000001 cycles: 193522006 heartbeat IPC: 0.562703 cumulative IPC: 0.552421 (Simulation time: 0 hr 14 min 50 sec) 
Simulation finished CPU 0 instructions: 100000003 cycles: 181021582 cumulative IPC: 0.552421 (Simulation time: 0 hr 14 min 50 sec) 

Simulation complete CPU 0 instructions: 100000003 cycles: 181021582 (Simulation time: 0 hr 14 min 50 sec) 


ChampSim completed all CPUs

Saving instructions large page distribution to /home/bsc/bsc018186/scratch/itp_asplos25_AE/dump/srv61_ap.pdst...
Saving data large page distribution to /home/bsc/bsc018186/scratch/itp_asplos25_AE/dump/srv61_ap.pdst...
=== Simulation ===
CPU 0 runs /gpfs/projects/bsc18/MN4/bsc18/romol/ChampSim/traces/qualcomm_srv/srv61_ap.champsimtrace.xz

Region of Interest Statistics

CPU 0 cumulative IPC: 0.552421 instructions: 100000003 cycles: 181021582
CPU 0 Branch Prediction Accuracy: 80.5502% MPKI: 35.0946 Average ROB Occupancy at Mispredict: 10.4808
Branch type MPKI
BRANCH_DIRECT_JUMP: 1.29426
BRANCH_INDIRECT: 17.5418
BRANCH_CONDITIONAL: 11.4374
BRANCH_DIRECT_CALL: 2.4312
BRANCH_INDIRECT_CALL: 0.68904
BRANCH_RETURN: 1.70091

Instructions large pages: 0
Instructions small pages: 5712
Large page distribution for instructions: 0%

Data large pages: 0
Data small pages: 4613
Large page distribution for data: 0%

cpu0_L1I TOTAL       ACCESS:   35705213  HIT:   27334012  MISS:    8371201  iACCESS:   35705213  iHIT:   27334012  iMISS:    8371201  dACCESS:          0  dHIT:          0  dMISS:          0  itACCESS:          0  itHIT:          0  itMISS:          0  dtACCESS:          0  dtHIT:          0  dtMISS:          0
cpu0_L1I LOAD         ACCESS:   10280641  HIT:    7985101  MISS:    2295540  iACCESS:   10280641  iHIT:    7985101  iMISS:    2295540  dACCESS:          0  dHIT:          0  dMISS:          0  itACCESS:          0  itHIT:          0  itMISS:          0  dtACCESS:          0  dtHIT:          0  dtMISS:          0
cpu0_L1I RFO          ACCESS:          0  HIT:          0  MISS:          0  iACCESS:          0  iHIT:          0  iMISS:          0  dACCESS:          0  dHIT:          0  dMISS:          0  itACCESS:          0  itHIT:          0  itMISS:          0  dtACCESS:          0  dtHIT:          0  dtMISS:          0
cpu0_L1I PREFETCH     ACCESS:   25424572  HIT:   19348911  MISS:    6075661  iACCESS:   25424572  iHIT:   19348911  iMISS:    6075661  dACCESS:          0  dHIT:          0  dMISS:          0  itACCESS:          0  itHIT:          0  itMISS:          0  dtACCESS:          0  dtHIT:          0  dtMISS:          0
cpu0_L1I WRITE        ACCESS:          0  HIT:          0  MISS:          0  iACCESS:          0  iHIT:          0  iMISS:          0  dACCESS:          0  dHIT:          0  dMISS:          0  itACCESS:          0  itHIT:          0  itMISS:          0  dtACCESS:          0  dtHIT:          0  dtMISS:          0
cpu0_L1I TRANSLATION  ACCESS:          0  HIT:          0  MISS:          0  iACCESS:          0  iHIT:          0  iMISS:          0  dACCESS:          0  dHIT:          0  dMISS:          0  itACCESS:          0  itHIT:          0  itMISS:          0  dtACCESS:          0  dtHIT:          0  dtMISS:          0
cpu0_L1I PREFETCH  REQUESTED:   27587107  ISSUED:   27583312  CROSSED:          0  USEFUL:    1956969  USELESS:     647734
cpu0_L1I AVERAGE iMISS LATENCY: 19.5357 cycles
cpu0_L1I AVERAGE dMISS LATENCY: 0 cycles
cpu0_L1I AVERAGE itMISS LATENCY: 0 cycles
cpu0_L1I AVERAGE dtMISS LATENCY: 0 cycles
cpu0_L1I PAGE CROSSINGS (TLB HIT):         0 
cpu0_L1I PAGE CROSSINGS (TLB MISS):         0 
cpu0_L1I AVERAGE MISS LATENCY: 19.5357 cycles
cpu0_ITLB TOTAL       ACCESS:   29825546  HIT:   27896472  MISS:    1929074  iACCESS:   29825546  iHIT:   27896472  iMISS:    1929074  dACCESS:          0  dHIT:          0  dMISS:          0  itACCESS:          0  itHIT:          0  itMISS:          0  dtACCESS:          0  dtHIT:          0  dtMISS:          0
cpu0_ITLB LOAD         ACCESS:   29825546  HIT:   27896472  MISS:    1929074  iACCESS:   29825546  iHIT:   27896472  iMISS:    1929074  dACCESS:          0  dHIT:          0  dMISS:          0  itACCESS:          0  itHIT:          0  itMISS:          0  dtACCESS:          0  dtHIT:          0  dtMISS:          0
cpu0_ITLB RFO          ACCESS:          0  HIT:          0  MISS:          0  iACCESS:          0  iHIT:          0  iMISS:          0  dACCESS:          0  dHIT:          0  dMISS:          0  itACCESS:          0  itHIT:          0  itMISS:          0  dtACCESS:          0  dtHIT:          0  dtMISS:          0
cpu0_ITLB PREFETCH     ACCESS:          0  HIT:          0  MISS:          0  iACCESS:          0  iHIT:          0  iMISS:          0  dACCESS:          0  dHIT:          0  dMISS:          0  itACCESS:          0  itHIT:          0  itMISS:          0  dtACCESS:          0  dtHIT:          0  dtMISS:          0
cpu0_ITLB WRITE        ACCESS:          0  HIT:          0  MISS:          0  iACCESS:          0  iHIT:          0  iMISS:          0  dACCESS:          0  dHIT:          0  dMISS:          0  itACCESS:          0  itHIT:          0  itMISS:          0  dtACCESS:          0  dtHIT:          0  dtMISS:          0
cpu0_ITLB TRANSLATION  ACCESS:          0  HIT:          0  MISS:          0  iACCESS:          0  iHIT:          0  iMISS:          0  dACCESS:          0  dHIT:          0  dMISS:          0  itACCESS:          0  itHIT:          0  itMISS:          0  dtACCESS:          0  dtHIT:          0  dtMISS:          0
cpu0_ITLB PREFETCH  REQUESTED:          0  ISSUED:          0  CROSSED:          0  USEFUL:     328013  USELESS:      60723
cpu0_ITLB AVERAGE iMISS LATENCY: 3.58019 cycles
cpu0_ITLB AVERAGE dMISS LATENCY: 0 cycles
cpu0_ITLB AVERAGE itMISS LATENCY: 0 cycles
cpu0_ITLB AVERAGE dtMISS LATENCY: 0 cycles
cpu0_ITLB PAGE CROSSINGS (TLB HIT):         0 
cpu0_ITLB PAGE CROSSINGS (TLB MISS):         0 
cpu0_ITLB AVERAGE MISS LATENCY: 3.58019 cycles
cpu0_DTLB TOTAL       ACCESS:   27979970  HIT:   26019851  MISS:    1960119  iACCESS:          0  iHIT:          0  iMISS:          0  dACCESS:   27979970  dHIT:   26019851  dMISS:    1960119  itACCESS:          0  itHIT:          0  itMISS:          0  dtACCESS:          0  dtHIT:          0  dtMISS:          0
cpu0_DTLB LOAD         ACCESS:   27979970  HIT:   26019851  MISS:    1960119  iACCESS:          0  iHIT:          0  iMISS:          0  dACCESS:   27979970  dHIT:   26019851  dMISS:    1960119  itACCESS:          0  itHIT:          0  itMISS:          0  dtACCESS:          0  dtHIT:          0  dtMISS:          0
cpu0_DTLB RFO          ACCESS:          0  HIT:          0  MISS:          0  iACCESS:          0  iHIT:          0  iMISS:          0  dACCESS:          0  dHIT:          0  dMISS:          0  itACCESS:          0  itHIT:          0  itMISS:          0  dtACCESS:          0  dtHIT:          0  dtMISS:          0
cpu0_DTLB PREFETCH     ACCESS:          0  HIT:          0  MISS:          0  iACCESS:          0  iHIT:          0  iMISS:          0  dACCESS:          0  dHIT:          0  dMISS:          0  itACCESS:          0  itHIT:          0  itMISS:          0  dtACCESS:          0  dtHIT:          0  dtMISS:          0
cpu0_DTLB WRITE        ACCESS:          0  HIT:          0  MISS:          0  iACCESS:          0  iHIT:          0  iMISS:          0  dACCESS:          0  dHIT:          0  dMISS:          0  itACCESS:          0  itHIT:          0  itMISS:          0  dtACCESS:          0  dtHIT:          0  dtMISS:          0
cpu0_DTLB TRANSLATION  ACCESS:          0  HIT:          0  MISS:          0  iACCESS:          0  iHIT:          0  iMISS:          0  dACCESS:          0  dHIT:          0  dMISS:          0  itACCESS:          0  itHIT:          0  itMISS:          0  dtACCESS:          0  dtHIT:          0  dtMISS:          0
cpu0_DTLB PREFETCH  REQUESTED:          0  ISSUED:          0  CROSSED:          0  USEFUL:          0  USELESS:          0
cpu0_DTLB AVERAGE iMISS LATENCY: 0 cycles
cpu0_DTLB AVERAGE dMISS LATENCY: 9.78806 cycles
cpu0_DTLB AVERAGE itMISS LATENCY: 0 cycles
cpu0_DTLB AVERAGE dtMISS LATENCY: 0 cycles
cpu0_DTLB PAGE CROSSINGS (TLB HIT):         0 
cpu0_DTLB PAGE CROSSINGS (TLB MISS):         0 
cpu0_DTLB AVERAGE MISS LATENCY: 9.78806 cycles
cpu0_STLB TOTAL       ACCESS:    1625940  HIT:    1393391  MISS:     232549  iACCESS:     388741  iHIT:     300856  iMISS:      87885  dACCESS:    1237199  dHIT:    1092535  dMISS:     144664  itACCESS:          0  itHIT:          0  itMISS:          0  dtACCESS:          0  dtHIT:          0  dtMISS:          0
cpu0_STLB LOAD         ACCESS:    1625940  HIT:    1393391  MISS:     232549  iACCESS:     388741  iHIT:     300856  iMISS:      87885  dACCESS:    1237199  dHIT:    1092535  dMISS:     144664  itACCESS:          0  itHIT:          0  itMISS:          0  dtACCESS:          0  dtHIT:          0  dtMISS:          0
cpu0_STLB RFO          ACCESS:          0  HIT:          0  MISS:          0  iACCESS:          0  iHIT:          0  iMISS:          0  dACCESS:          0  dHIT:          0  dMISS:          0  itACCESS:          0  itHIT:          0  itMISS:          0  dtACCESS:          0  dtHIT:          0  dtMISS:          0
cpu0_STLB PREFETCH     ACCESS:          0  HIT:          0  MISS:          0  iACCESS:          0  iHIT:          0  iMISS:          0  dACCESS:          0  dHIT:          0  dMISS:          0  itACCESS:          0  itHIT:          0  itMISS:          0  dtACCESS:          0  dtHIT:          0  dtMISS:          0
cpu0_STLB WRITE        ACCESS:          0  HIT:          0  MISS:          0  iACCESS:          0  iHIT:          0  iMISS:          0  dACCESS:          0  dHIT:          0  dMISS:          0  itACCESS:          0  itHIT:          0  itMISS:          0  dtACCESS:          0  dtHIT:          0  dtMISS:          0
cpu0_STLB TRANSLATION  ACCESS:          0  HIT:          0  MISS:          0  iACCESS:          0  iHIT:          0  iMISS:          0  dACCESS:          0  dHIT:          0  dMISS:          0  itACCESS:          0  itHIT:          0  itMISS:          0  dtACCESS:          0  dtHIT:          0  dtMISS:          0
cpu0_STLB PREFETCH  REQUESTED:          0  ISSUED:          0  CROSSED:          0  USEFUL:          0  USELESS:          0
cpu0_STLB AVERAGE iMISS LATENCY: 16.3588 cycles
cpu0_STLB AVERAGE dMISS LATENCY: 40.0152 cycles
cpu0_STLB AVERAGE itMISS LATENCY: 0 cycles
cpu0_STLB AVERAGE dtMISS LATENCY: 0 cycles
cpu0_STLB PAGE CROSSINGS (TLB HIT):         0 
cpu0_STLB PAGE CROSSINGS (TLB MISS):         0 
cpu0_STLB AVERAGE MISS LATENCY: 56.3739 cycles
cpu0_L1D TOTAL       ACCESS:   42658368  HIT:   38383532  MISS:    4274836  iACCESS:          0  iHIT:          0  iMISS:          0  dACCESS:   42361035  dHIT:   38356367  dMISS:    4004668  itACCESS:      94318  itHIT:      15203  itMISS:      79115  dtACCESS:     203015  dtHIT:      11962  dtMISS:     191053
cpu0_L1D LOAD         ACCESS:   19391565  HIT:   17589451  MISS:    1802114  iACCESS:          0  iHIT:          0  iMISS:          0  dACCESS:   19391565  dHIT:   17589451  dMISS:    1802114  itACCESS:          0  itHIT:          0  itMISS:          0  dtACCESS:          0  dtHIT:          0  dtMISS:          0
cpu0_L1D RFO          ACCESS:          0  HIT:          0  MISS:          0  iACCESS:          0  iHIT:          0  iMISS:          0  dACCESS:          0  dHIT:          0  dMISS:          0  itACCESS:          0  itHIT:          0  itMISS:          0  dtACCESS:          0  dtHIT:          0  dtMISS:          0
cpu0_L1D PREFETCH     ACCESS:   12787697  HIT:   11091874  MISS:    1695823  iACCESS:          0  iHIT:          0  iMISS:          0  dACCESS:   12787697  dHIT:   11091874  dMISS:    1695823  itACCESS:          0  itHIT:          0  itMISS:          0  dtACCESS:          0  dtHIT:          0  dtMISS:          0
cpu0_L1D WRITE        ACCESS:   10181773  HIT:    9675042  MISS:     506731  iACCESS:          0  iHIT:          0  iMISS:          0  dACCESS:   10181773  dHIT:    9675042  dMISS:     506731  itACCESS:          0  itHIT:          0  itMISS:          0  dtACCESS:          0  dtHIT:          0  dtMISS:          0
cpu0_L1D TRANSLATION  ACCESS:     297333  HIT:      27165  MISS:     270168  iACCESS:          0  iHIT:          0  iMISS:          0  dACCESS:          0  dHIT:          0  dMISS:          0  itACCESS:      94318  itHIT:      15203  itMISS:      79115  dtACCESS:     203015  dtHIT:      11962  dtMISS:     191053
cpu0_L1D PREFETCH  REQUESTED:   19391565  ISSUED:   17273465  CROSSED:          0  USEFUL:     310555  USELESS:     703410
cpu0_L1D AVERAGE iMISS LATENCY: 0 cycles
cpu0_L1D AVERAGE dMISS LATENCY: 40.3248 cycles
cpu0_L1D AVERAGE itMISS LATENCY: 0.712112 cycles
cpu0_L1D AVERAGE dtMISS LATENCY: 1.73661 cycles
cpu0_L1D PAGE CROSSINGS (TLB HIT):         0 
cpu0_L1D PAGE CROSSINGS (TLB MISS):         0 
cpu0_L1D AVERAGE MISS LATENCY: 42.7736 cycles
cpu0_L2C TOTAL       ACCESS:    7217756  HIT:    1259560  MISS:    5958196  iACCESS:    3326168  iHIT:     675712  iMISS:    2650456  dACCESS:    3631771  dHIT:     380112  dMISS:    3251659  itACCESS:      79011  itHIT:      61350  itMISS:      17661  dtACCESS:     180806  dtHIT:     142386  dtMISS:      38420
cpu0_L2C LOAD         ACCESS:    1707009  HIT:     130059  MISS:    1576950  iACCESS:     757506  iHIT:      93110  iMISS:     664396  dACCESS:     949503  dHIT:      36949  dMISS:     912554  itACCESS:          0  itHIT:          0  itMISS:          0  dtACCESS:          0  dtHIT:          0  dtMISS:          0
cpu0_L2C RFO          ACCESS:     166549  HIT:       6651  MISS:     159898  iACCESS:          0  iHIT:          0  iMISS:          0  dACCESS:     166549  dHIT:       6651  dMISS:     159898  itACCESS:          0  itHIT:          0  itMISS:          0  dtACCESS:          0  dtHIT:          0  dtMISS:          0
cpu0_L2C PREFETCH     ACCESS:    4806539  HIT:     861923  MISS:    3944616  iACCESS:    2568662  iHIT:     582602  iMISS:    1986060  dACCESS:    2237877  dHIT:     279321  dMISS:    1958556  itACCESS:          0  itHIT:          0  itMISS:          0  dtACCESS:          0  dtHIT:          0  dtMISS:          0
cpu0_L2C WRITE        ACCESS:     277842  HIT:      57191  MISS:     220651  iACCESS:          0  iHIT:          0  iMISS:          0  dACCESS:     277842  dHIT:      57191  dMISS:     220651  itACCESS:          0  itHIT:          0  itMISS:          0  dtACCESS:          0  dtHIT:          0  dtMISS:          0
cpu0_L2C TRANSLATION  ACCESS:     259817  HIT:     203736  MISS:      56081  iACCESS:          0  iHIT:          0  iMISS:          0  dACCESS:          0  dHIT:          0  dMISS:          0  itACCESS:      79011  itHIT:      61350  itMISS:      17661  dtACCESS:     180806  dtHIT:     142386  dtMISS:      38420
cpu0_L2C PREFETCH  REQUESTED:    1478295  ISSUED:    1478295  CROSSED:          0  USEFUL:     416715  USELESS:     444438
cpu0_L2C AVERAGE iMISS LATENCY: 22.503 cycles
cpu0_L2C AVERAGE dMISS LATENCY: 36.5782 cycles
cpu0_L2C AVERAGE itMISS LATENCY: 0.388251 cycles
cpu0_L2C AVERAGE dtMISS LATENCY: 0.965538 cycles
cpu0_L2C PAGE CROSSINGS (TLB HIT):         0 
cpu0_L2C PAGE CROSSINGS (TLB MISS):         0 
cpu0_L2C AVERAGE MISS LATENCY: 60.435 cycles
LLC TOTAL       ACCESS:    5809099  HIT:    4226552  MISS:    1582547  iACCESS:    2572908  iHIT:    2000905  iMISS:     572003  dACCESS:    3180110  dHIT:    2207404  dMISS:     972706  itACCESS:      17661  itHIT:       6416  itMISS:      11245  dtACCESS:      38420  dtHIT:      11827  dtMISS:      26593
LLC LOAD         ACCESS:    1570452  HIT:    1213303  MISS:     357149  iACCESS:     662884  iHIT:     548601  iMISS:     114283  dACCESS:     907568  dHIT:     664702  dMISS:     242866  itACCESS:          0  itHIT:          0  itMISS:          0  dtACCESS:          0  dtHIT:          0  dtMISS:          0
LLC RFO          ACCESS:     159875  HIT:      94072  MISS:      65803  iACCESS:          0  iHIT:          0  iMISS:          0  dACCESS:     159875  dHIT:      94072  dMISS:      65803  itACCESS:          0  itHIT:          0  itMISS:          0  dtACCESS:          0  dtHIT:          0  dtMISS:          0
LLC PREFETCH     ACCESS:    3769011  HIT:    2647254  MISS:    1121757  iACCESS:    1910024  iHIT:    1452304  iMISS:     457720  dACCESS:    1858987  dHIT:    1194950  dMISS:     664037  itACCESS:          0  itHIT:          0  itMISS:          0  dtACCESS:          0  dtHIT:          0  dtMISS:          0
LLC WRITE        ACCESS:     253680  HIT:     253680  MISS:          0  iACCESS:          0  iHIT:          0  iMISS:          0  dACCESS:     253680  dHIT:     253680  dMISS:          0  itACCESS:          0  itHIT:          0  itMISS:          0  dtACCESS:          0  dtHIT:          0  dtMISS:          0
LLC TRANSLATION  ACCESS:      56081  HIT:      18243  MISS:      37838  iACCESS:          0  iHIT:          0  iMISS:          0  dACCESS:          0  dHIT:          0  dMISS:          0  itACCESS:      17661  itHIT:       6416  itMISS:      11245  dtACCESS:      38420  dtHIT:      11827  dtMISS:      26593
LLC PREFETCH  REQUESTED:          0  ISSUED:          0  CROSSED:          0  USEFUL:          0  USELESS:          0
LLC AVERAGE iMISS LATENCY: 53.2346 cycles
LLC AVERAGE dMISS LATENCY: 102.982 cycles
LLC AVERAGE itMISS LATENCY: 1.24312 cycles
LLC AVERAGE dtMISS LATENCY: 3.15857 cycles
LLC PAGE CROSSINGS (TLB HIT):         0 
LLC PAGE CROSSINGS (TLB MISS):         0 
LLC AVERAGE MISS LATENCY: 160.618 cycles

PageTableWalker TOTAL       ACCESS:     116024  
PageTableWalker AVERAGE LATENCY: 3.78441 cycles
PageTableWalker TOTAL LATENCY: 439082 cycles

DRAM Statistics
Channel 0
 RQ ROW_BUFFER_HIT:     471870
  ROW_BUFFER_MISS:    1099768
 AVG DBUS CONGESTED CYCLE:    3.65223
 WQ ROW_BUFFER_HIT:      40353
  ROW_BUFFER_MISS:      39989  FULL:          0

