last_page:0x200000000000000
VMEM_RES_CAP:0x100000
PAGE_SIZE:4096
LOG2_PAGE_SIZE:12
LOG2_PAGE_TABLE_SIZE:9
page_table_levels:5
WARNING: physical memory size is smaller than virtual memory size
FDiP enabled with aggresivity 16

*** ChampSim Multicore Out-of-Order Simulator ***

Warmup Instructions: 50000000
Simulation Instructions: 100000000
Number of CPUs: 1
Small page size: 4096
Large page size: 2097152

CPU 0 Bimodal branch predictor
Basic BTB sets: 1024 ways: 8 indirect buffer size: 4096 RAS size: 64
Instruction page size distrubution: 0
Loading instruction page size distribution from /home/bsc/bsc018186/scratch/itp_asplos25_AE/dump/srv669_ap.pdst
Data page size distrubution: 0
Loading data page size distribution from /home/bsc/bsc018186/scratch/itp_asplos25_AE/dump/srv669_ap.pdst
cpu0_L2C IP-based stride prefetcher
cpu0_L2C is using PTP replacement policy:
	TLB_STRESS_THRESHOLD:0
	PTE_EVICTION_RATIO:0
cpu0_L1D next line prefetcher
cpu0_STLB using iTP with max lru@8
cpu0_STLB using iTP with instr@0 and data@2
Init sat counter with 3 bits (max:50).
cpu0_L1I next line prefetcher
Off-chip DRAM Size: 4 GiB Channels: 1 Width: 64-bit Data Rate: 3200 MT/s
Heartbeat CPU 0 instructions: 10000002 cycles: 2911155 heartbeat IPC: 3.43507 cumulative IPC: 3.43507 (Simulation time: 0 hr 0 min 37 sec) 
Heartbeat CPU 0 instructions: 20000001 cycles: 5592598 heartbeat IPC: 3.72934 cumulative IPC: 3.57616 (Simulation time: 0 hr 1 min 17 sec) 
Heartbeat CPU 0 instructions: 30000000 cycles: 8092667 heartbeat IPC: 3.99989 cumulative IPC: 3.70706 (Simulation time: 0 hr 1 min 58 sec) 
Heartbeat CPU 0 instructions: 40000003 cycles: 10592735 heartbeat IPC: 3.9999 cumulative IPC: 3.77618 (Simulation time: 0 hr 2 min 38 sec) 
Heartbeat CPU 0 instructions: 50000000 cycles: 13092820 heartbeat IPC: 3.99987 cumulative IPC: 3.81889 (Simulation time: 0 hr 3 min 17 sec) 
Warmup finished CPU 0 instructions: 50000000 cycles: 13092821 cumulative IPC: 3.81889 (Simulation time: 0 hr 3 min 17 sec) 

Warmup complete CPU 0 instructions: 50000000 cycles: 13092821 (Simulation time: 0 hr 3 min 17 sec) 

Heartbeat CPU 0 instructions: 60000000 cycles: 33736642 heartbeat IPC: 0.484407 cumulative IPC: 0.484407 (Simulation time: 0 hr 4 min 28 sec) 
Heartbeat CPU 0 instructions: 70000003 cycles: 54219477 heartbeat IPC: 0.488214 cumulative IPC: 0.486303 (Simulation time: 0 hr 5 min 41 sec) 
Heartbeat CPU 0 instructions: 80000004 cycles: 74988684 heartbeat IPC: 0.481483 cumulative IPC: 0.484686 (Simulation time: 0 hr 6 min 59 sec) 
Heartbeat CPU 0 instructions: 90000001 cycles: 95404633 heartbeat IPC: 0.489813 cumulative IPC: 0.485957 (Simulation time: 0 hr 8 min 17 sec) 
Heartbeat CPU 0 instructions: 100000000 cycles: 115993676 heartbeat IPC: 0.485696 cumulative IPC: 0.485905 (Simulation time: 0 hr 9 min 35 sec) 
*** Reached end of trace: /gpfs/projects/bsc18/MN4/bsc18/romol/ChampSim/traces/qualcomm_srv/srv669_ap.champsimtrace.xz
Heartbeat CPU 0 instructions: 110000002 cycles: 130678444 heartbeat IPC: 0.680978 cumulative IPC: 0.510267 (Simulation time: 0 hr 10 min 46 sec) 
Heartbeat CPU 0 instructions: 120000004 cycles: 141529828 heartbeat IPC: 0.921542 cumulative IPC: 0.545015 (Simulation time: 0 hr 11 min 52 sec) 
Heartbeat CPU 0 instructions: 130000002 cycles: 162612305 heartbeat IPC: 0.474328 cumulative IPC: 0.535048 (Simulation time: 0 hr 13 min 4 sec) 
Heartbeat CPU 0 instructions: 140000000 cycles: 183266442 heartbeat IPC: 0.484165 cumulative IPC: 0.528872 (Simulation time: 0 hr 14 min 19 sec) 
Heartbeat CPU 0 instructions: 150000001 cycles: 203964330 heartbeat IPC: 0.483142 cumulative IPC: 0.523913 (Simulation time: 0 hr 15 min 34 sec) 
Simulation finished CPU 0 instructions: 100000001 cycles: 190871510 cumulative IPC: 0.523913 (Simulation time: 0 hr 15 min 34 sec) 

Simulation complete CPU 0 instructions: 100000001 cycles: 190871510 (Simulation time: 0 hr 15 min 34 sec) 


ChampSim completed all CPUs

Saving instructions large page distribution to /home/bsc/bsc018186/scratch/itp_asplos25_AE/dump/srv669_ap.pdst...
Saving data large page distribution to /home/bsc/bsc018186/scratch/itp_asplos25_AE/dump/srv669_ap.pdst...
=== Simulation ===
CPU 0 runs /gpfs/projects/bsc18/MN4/bsc18/romol/ChampSim/traces/qualcomm_srv/srv669_ap.champsimtrace.xz

Region of Interest Statistics

CPU 0 cumulative IPC: 0.523913 instructions: 100000001 cycles: 190871510
CPU 0 Branch Prediction Accuracy: 82.4556% MPKI: 34.0984 Average ROB Occupancy at Mispredict: 12.2079
Branch type MPKI
BRANCH_DIRECT_JUMP: 1.26123
BRANCH_INDIRECT: 17.3427
BRANCH_CONDITIONAL: 10.7825
BRANCH_DIRECT_CALL: 2.39194
BRANCH_INDIRECT_CALL: 0.68075
BRANCH_RETURN: 1.63937

Instructions large pages: 0
Instructions small pages: 1178
Large page distribution for instructions: 0%

Data large pages: 0
Data small pages: 5539
Large page distribution for data: 0%

cpu0_L1I TOTAL       ACCESS:   35562511  HIT:   28136052  MISS:    7426459  iACCESS:   35562511  iHIT:   28136052  iMISS:    7426459  dACCESS:          0  dHIT:          0  dMISS:          0  itACCESS:          0  itHIT:          0  itMISS:          0  dtACCESS:          0  dtHIT:          0  dtMISS:          0
cpu0_L1I LOAD         ACCESS:    9573190  HIT:    7536595  MISS:    2036595  iACCESS:    9573190  iHIT:    7536595  iMISS:    2036595  dACCESS:          0  dHIT:          0  dMISS:          0  itACCESS:          0  itHIT:          0  itMISS:          0  dtACCESS:          0  dtHIT:          0  dtMISS:          0
cpu0_L1I RFO          ACCESS:          0  HIT:          0  MISS:          0  iACCESS:          0  iHIT:          0  iMISS:          0  dACCESS:          0  dHIT:          0  dMISS:          0  itACCESS:          0  itHIT:          0  itMISS:          0  dtACCESS:          0  dtHIT:          0  dtMISS:          0
cpu0_L1I PREFETCH     ACCESS:   25989321  HIT:   20599457  MISS:    5389864  iACCESS:   25989321  iHIT:   20599457  iMISS:    5389864  dACCESS:          0  dHIT:          0  dMISS:          0  itACCESS:          0  itHIT:          0  itMISS:          0  dtACCESS:          0  dtHIT:          0  dtMISS:          0
cpu0_L1I WRITE        ACCESS:          0  HIT:          0  MISS:          0  iACCESS:          0  iHIT:          0  iMISS:          0  dACCESS:          0  dHIT:          0  dMISS:          0  itACCESS:          0  itHIT:          0  itMISS:          0  dtACCESS:          0  dtHIT:          0  dtMISS:          0
cpu0_L1I TRANSLATION  ACCESS:          0  HIT:          0  MISS:          0  iACCESS:          0  iHIT:          0  iMISS:          0  dACCESS:          0  dHIT:          0  dMISS:          0  itACCESS:          0  itHIT:          0  itMISS:          0  dtACCESS:          0  dtHIT:          0  dtMISS:          0
cpu0_L1I PREFETCH  REQUESTED:   28166855  ISSUED:   28166655  CROSSED:          0  USEFUL:    1809221  USELESS:     598024
cpu0_L1I AVERAGE iMISS LATENCY: 21.303 cycles
cpu0_L1I AVERAGE dMISS LATENCY: 0 cycles
cpu0_L1I AVERAGE itMISS LATENCY: 0 cycles
cpu0_L1I AVERAGE dtMISS LATENCY: 0 cycles
cpu0_L1I PAGE CROSSINGS (TLB HIT):         0 
cpu0_L1I PAGE CROSSINGS (TLB MISS):         0 
cpu0_L1I AVERAGE MISS LATENCY: 21.303 cycles
cpu0_ITLB TOTAL       ACCESS:   29872759  HIT:   28137813  MISS:    1734946  iACCESS:   29872759  iHIT:   28137813  iMISS:    1734946  dACCESS:          0  dHIT:          0  dMISS:          0  itACCESS:          0  itHIT:          0  itMISS:          0  dtACCESS:          0  dtHIT:          0  dtMISS:          0
cpu0_ITLB LOAD         ACCESS:   29872759  HIT:   28137813  MISS:    1734946  iACCESS:   29872759  iHIT:   28137813  iMISS:    1734946  dACCESS:          0  dHIT:          0  dMISS:          0  itACCESS:          0  itHIT:          0  itMISS:          0  dtACCESS:          0  dtHIT:          0  dtMISS:          0
cpu0_ITLB RFO          ACCESS:          0  HIT:          0  MISS:          0  iACCESS:          0  iHIT:          0  iMISS:          0  dACCESS:          0  dHIT:          0  dMISS:          0  itACCESS:          0  itHIT:          0  itMISS:          0  dtACCESS:          0  dtHIT:          0  dtMISS:          0
cpu0_ITLB PREFETCH     ACCESS:          0  HIT:          0  MISS:          0  iACCESS:          0  iHIT:          0  iMISS:          0  dACCESS:          0  dHIT:          0  dMISS:          0  itACCESS:          0  itHIT:          0  itMISS:          0  dtACCESS:          0  dtHIT:          0  dtMISS:          0
cpu0_ITLB WRITE        ACCESS:          0  HIT:          0  MISS:          0  iACCESS:          0  iHIT:          0  iMISS:          0  dACCESS:          0  dHIT:          0  dMISS:          0  itACCESS:          0  itHIT:          0  itMISS:          0  dtACCESS:          0  dtHIT:          0  dtMISS:          0
cpu0_ITLB TRANSLATION  ACCESS:          0  HIT:          0  MISS:          0  iACCESS:          0  iHIT:          0  iMISS:          0  dACCESS:          0  dHIT:          0  dMISS:          0  itACCESS:          0  itHIT:          0  itMISS:          0  dtACCESS:          0  dtHIT:          0  dtMISS:          0
cpu0_ITLB PREFETCH  REQUESTED:          0  ISSUED:          0  CROSSED:          0  USEFUL:     298000  USELESS:      59566
cpu0_ITLB AVERAGE iMISS LATENCY: 3.79163 cycles
cpu0_ITLB AVERAGE dMISS LATENCY: 0 cycles
cpu0_ITLB AVERAGE itMISS LATENCY: 0 cycles
cpu0_ITLB AVERAGE dtMISS LATENCY: 0 cycles
cpu0_ITLB PAGE CROSSINGS (TLB HIT):         0 
cpu0_ITLB PAGE CROSSINGS (TLB MISS):         0 
cpu0_ITLB AVERAGE MISS LATENCY: 3.79163 cycles
cpu0_DTLB TOTAL       ACCESS:   30001730  HIT:   25831265  MISS:    4170465  iACCESS:          0  iHIT:          0  iMISS:          0  dACCESS:   30001730  dHIT:   25831265  dMISS:    4170465  itACCESS:          0  itHIT:          0  itMISS:          0  dtACCESS:          0  dtHIT:          0  dtMISS:          0
cpu0_DTLB LOAD         ACCESS:   30001730  HIT:   25831265  MISS:    4170465  iACCESS:          0  iHIT:          0  iMISS:          0  dACCESS:   30001730  dHIT:   25831265  dMISS:    4170465  itACCESS:          0  itHIT:          0  itMISS:          0  dtACCESS:          0  dtHIT:          0  dtMISS:          0
cpu0_DTLB RFO          ACCESS:          0  HIT:          0  MISS:          0  iACCESS:          0  iHIT:          0  iMISS:          0  dACCESS:          0  dHIT:          0  dMISS:          0  itACCESS:          0  itHIT:          0  itMISS:          0  dtACCESS:          0  dtHIT:          0  dtMISS:          0
cpu0_DTLB PREFETCH     ACCESS:          0  HIT:          0  MISS:          0  iACCESS:          0  iHIT:          0  iMISS:          0  dACCESS:          0  dHIT:          0  dMISS:          0  itACCESS:          0  itHIT:          0  itMISS:          0  dtACCESS:          0  dtHIT:          0  dtMISS:          0
cpu0_DTLB WRITE        ACCESS:          0  HIT:          0  MISS:          0  iACCESS:          0  iHIT:          0  iMISS:          0  dACCESS:          0  dHIT:          0  dMISS:          0  itACCESS:          0  itHIT:          0  itMISS:          0  dtACCESS:          0  dtHIT:          0  dtMISS:          0
cpu0_DTLB TRANSLATION  ACCESS:          0  HIT:          0  MISS:          0  iACCESS:          0  iHIT:          0  iMISS:          0  dACCESS:          0  dHIT:          0  dMISS:          0  itACCESS:          0  itHIT:          0  itMISS:          0  dtACCESS:          0  dtHIT:          0  dtMISS:          0
cpu0_DTLB PREFETCH  REQUESTED:          0  ISSUED:          0  CROSSED:          0  USEFUL:          0  USELESS:          0
cpu0_DTLB AVERAGE iMISS LATENCY: 0 cycles
cpu0_DTLB AVERAGE dMISS LATENCY: 9.23214 cycles
cpu0_DTLB AVERAGE itMISS LATENCY: 0 cycles
cpu0_DTLB AVERAGE dtMISS LATENCY: 0 cycles
cpu0_DTLB PAGE CROSSINGS (TLB HIT):         0 
cpu0_DTLB PAGE CROSSINGS (TLB MISS):         0 
cpu0_DTLB AVERAGE MISS LATENCY: 9.23214 cycles
cpu0_STLB TOTAL       ACCESS:    2583333  HIT:    2384689  MISS:     198644  iACCESS:     357571  iHIT:     327275  iMISS:      30296  dACCESS:    2225762  dHIT:    2057414  dMISS:     168348  itACCESS:          0  itHIT:          0  itMISS:          0  dtACCESS:          0  dtHIT:          0  dtMISS:          0
cpu0_STLB LOAD         ACCESS:    2583333  HIT:    2384689  MISS:     198644  iACCESS:     357571  iHIT:     327275  iMISS:      30296  dACCESS:    2225762  dHIT:    2057414  dMISS:     168348  itACCESS:          0  itHIT:          0  itMISS:          0  dtACCESS:          0  dtHIT:          0  dtMISS:          0
cpu0_STLB RFO          ACCESS:          0  HIT:          0  MISS:          0  iACCESS:          0  iHIT:          0  iMISS:          0  dACCESS:          0  dHIT:          0  dMISS:          0  itACCESS:          0  itHIT:          0  itMISS:          0  dtACCESS:          0  dtHIT:          0  dtMISS:          0
cpu0_STLB PREFETCH     ACCESS:          0  HIT:          0  MISS:          0  iACCESS:          0  iHIT:          0  iMISS:          0  dACCESS:          0  dHIT:          0  dMISS:          0  itACCESS:          0  itHIT:          0  itMISS:          0  dtACCESS:          0  dtHIT:          0  dtMISS:          0
cpu0_STLB WRITE        ACCESS:          0  HIT:          0  MISS:          0  iACCESS:          0  iHIT:          0  iMISS:          0  dACCESS:          0  dHIT:          0  dMISS:          0  itACCESS:          0  itHIT:          0  itMISS:          0  dtACCESS:          0  dtHIT:          0  dtMISS:          0
cpu0_STLB TRANSLATION  ACCESS:          0  HIT:          0  MISS:          0  iACCESS:          0  iHIT:          0  iMISS:          0  dACCESS:          0  dHIT:          0  dMISS:          0  itACCESS:          0  itHIT:          0  itMISS:          0  dtACCESS:          0  dtHIT:          0  dtMISS:          0
cpu0_STLB PREFETCH  REQUESTED:          0  ISSUED:          0  CROSSED:          0  USEFUL:          0  USELESS:          0
cpu0_STLB AVERAGE iMISS LATENCY: 19.0448 cycles
cpu0_STLB AVERAGE dMISS LATENCY: 103.151 cycles
cpu0_STLB AVERAGE itMISS LATENCY: 0 cycles
cpu0_STLB AVERAGE dtMISS LATENCY: 0 cycles
cpu0_STLB PAGE CROSSINGS (TLB HIT):         0 
cpu0_STLB PAGE CROSSINGS (TLB MISS):         0 
cpu0_STLB AVERAGE MISS LATENCY: 122.196 cycles
cpu0_L1D TOTAL       ACCESS:   46353401  HIT:   39271053  MISS:    7082348  iACCESS:          0  iHIT:          0  iMISS:          0  dACCESS:   46081208  dHIT:   39254605  dMISS:    6826603  itACCESS:      34236  itHIT:       2719  itMISS:      31517  dtACCESS:     237957  dtHIT:      13729  dtMISS:     224228
cpu0_L1D LOAD         ACCESS:   22244848  HIT:   18352338  MISS:    3892510  iACCESS:          0  iHIT:          0  iMISS:          0  dACCESS:   22244848  dHIT:   18352338  dMISS:    3892510  itACCESS:          0  itHIT:          0  itMISS:          0  dtACCESS:          0  dtHIT:          0  dtMISS:          0
cpu0_L1D RFO          ACCESS:          0  HIT:          0  MISS:          0  iACCESS:          0  iHIT:          0  iMISS:          0  dACCESS:          0  dHIT:          0  dMISS:          0  itACCESS:          0  itHIT:          0  itMISS:          0  dtACCESS:          0  dtHIT:          0  dtMISS:          0
cpu0_L1D PREFETCH     ACCESS:   13954485  HIT:   11458696  MISS:    2495789  iACCESS:          0  iHIT:          0  iMISS:          0  dACCESS:   13954485  dHIT:   11458696  dMISS:    2495789  itACCESS:          0  itHIT:          0  itMISS:          0  dtACCESS:          0  dtHIT:          0  dtMISS:          0
cpu0_L1D WRITE        ACCESS:    9881875  HIT:    9443571  MISS:     438304  iACCESS:          0  iHIT:          0  iMISS:          0  dACCESS:    9881875  dHIT:    9443571  dMISS:     438304  itACCESS:          0  itHIT:          0  itMISS:          0  dtACCESS:          0  dtHIT:          0  dtMISS:          0
cpu0_L1D TRANSLATION  ACCESS:     272193  HIT:      16448  MISS:     255745  iACCESS:          0  iHIT:          0  iMISS:          0  dACCESS:          0  dHIT:          0  dMISS:          0  itACCESS:      34236  itHIT:       2719  itMISS:      31517  dtACCESS:     237957  dtHIT:      13729  dtMISS:     224228
cpu0_L1D PREFETCH  REQUESTED:   22244848  ISSUED:   17625248  CROSSED:          0  USEFUL:     275919  USELESS:     789920
cpu0_L1D AVERAGE iMISS LATENCY: 0 cycles
cpu0_L1D AVERAGE dMISS LATENCY: 28.6502 cycles
cpu0_L1D AVERAGE itMISS LATENCY: 0.491884 cycles
cpu0_L1D AVERAGE dtMISS LATENCY: 2.5619 cycles
cpu0_L1D PAGE CROSSINGS (TLB HIT):         0 
cpu0_L1D PAGE CROSSINGS (TLB MISS):         0 
cpu0_L1D AVERAGE MISS LATENCY: 31.704 cycles
cpu0_L2C TOTAL       ACCESS:    8321687  HIT:    2526732  MISS:    5794955  iACCESS:    3066695  iHIT:     966310  iMISS:    2100385  dACCESS:    5010375  dHIT:    1438635  dMISS:    3571740  itACCESS:      31517  itHIT:      10488  itMISS:      21029  dtACCESS:     213100  dtHIT:     111299  dtMISS:     101801
cpu0_L2C LOAD         ACCESS:    3066732  HIT:    1050558  MISS:    2016174  iACCESS:     692137  iHIT:     190455  iMISS:     501682  dACCESS:    2374595  dHIT:     860103  dMISS:    1514492  itACCESS:          0  itHIT:          0  itMISS:          0  dtACCESS:          0  dtHIT:          0  dtMISS:          0
cpu0_L2C RFO          ACCESS:     167993  HIT:      19981  MISS:     148012  iACCESS:          0  iHIT:          0  iMISS:          0  dACCESS:     167993  dHIT:      19981  dMISS:     148012  itACCESS:          0  itHIT:          0  itMISS:          0  dtACCESS:          0  dtHIT:          0  dtMISS:          0
cpu0_L2C PREFETCH     ACCESS:    4597049  HIT:    1238440  MISS:    3358609  iACCESS:    2374558  iHIT:     775855  iMISS:    1598703  dACCESS:    2222491  dHIT:     462585  dMISS:    1759906  itACCESS:          0  itHIT:          0  itMISS:          0  dtACCESS:          0  dtHIT:          0  dtMISS:          0
cpu0_L2C WRITE        ACCESS:     245296  HIT:      95966  MISS:     149330  iACCESS:          0  iHIT:          0  iMISS:          0  dACCESS:     245296  dHIT:      95966  dMISS:     149330  itACCESS:          0  itHIT:          0  itMISS:          0  dtACCESS:          0  dtHIT:          0  dtMISS:          0
cpu0_L2C TRANSLATION  ACCESS:     244617  HIT:     121787  MISS:     122830  iACCESS:          0  iHIT:          0  iMISS:          0  dACCESS:          0  dHIT:          0  dMISS:          0  itACCESS:      31517  itHIT:      10488  itMISS:      21029  dtACCESS:     213100  dtHIT:     111299  dtMISS:     101801
cpu0_L2C PREFETCH  REQUESTED:    1391967  ISSUED:    1391965  CROSSED:          0  USEFUL:     375982  USELESS:     368732
cpu0_L2C AVERAGE iMISS LATENCY: 22.6444 cycles
cpu0_L2C AVERAGE dMISS LATENCY: 40.2777 cycles
cpu0_L2C AVERAGE itMISS LATENCY: 0.548409 cycles
cpu0_L2C AVERAGE dtMISS LATENCY: 2.78089 cycles
cpu0_L2C PAGE CROSSINGS (TLB HIT):         0 
cpu0_L2C PAGE CROSSINGS (TLB MISS):         0 
cpu0_L2C AVERAGE MISS LATENCY: 66.2514 cycles
LLC TOTAL       ACCESS:    5659183  HIT:    3946960  MISS:    1712223  iACCESS:    2025315  iHIT:    1414822  iMISS:     610493  dACCESS:    3511038  dHIT:    2500958  dMISS:    1010080  itACCESS:      21029  itHIT:       5338  itMISS:      15691  dtACCESS:     101801  dtHIT:      25842  dtMISS:      75959
LLC LOAD         ACCESS:    2010248  HIT:    1622987  MISS:     387261  iACCESS:     500538  iHIT:     374611  iMISS:     125927  dACCESS:    1509710  dHIT:    1248376  dMISS:     261334  itACCESS:          0  itHIT:          0  itMISS:          0  dtACCESS:          0  dtHIT:          0  dtMISS:          0
LLC RFO          ACCESS:     148003  HIT:      89376  MISS:      58627  iACCESS:          0  iHIT:          0  iMISS:          0  dACCESS:     148003  dHIT:      89376  dMISS:      58627  itACCESS:          0  itHIT:          0  itMISS:          0  dtACCESS:          0  dtHIT:          0  dtMISS:          0
LLC PREFETCH     ACCESS:    3176824  HIT:    2003893  MISS:    1172931  iACCESS:    1524777  iHIT:    1040211  iMISS:     484566  dACCESS:    1652047  dHIT:     963682  dMISS:     688365  itACCESS:          0  itHIT:          0  itMISS:          0  dtACCESS:          0  dtHIT:          0  dtMISS:          0
LLC WRITE        ACCESS:     201278  HIT:     199524  MISS:       1754  iACCESS:          0  iHIT:          0  iMISS:          0  dACCESS:     201278  dHIT:     199524  dMISS:       1754  itACCESS:          0  itHIT:          0  itMISS:          0  dtACCESS:          0  dtHIT:          0  dtMISS:          0
LLC TRANSLATION  ACCESS:     122830  HIT:      31180  MISS:      91650  iACCESS:          0  iHIT:          0  iMISS:          0  dACCESS:          0  dHIT:          0  dMISS:          0  itACCESS:      21029  itHIT:       5338  itMISS:      15691  dtACCESS:     101801  dtHIT:      25842  dtMISS:      75959
LLC PREFETCH  REQUESTED:          0  ISSUED:          0  CROSSED:          0  USEFUL:          0  USELESS:          0
LLC AVERAGE iMISS LATENCY: 53.6853 cycles
LLC AVERAGE dMISS LATENCY: 99.7763 cycles
LLC AVERAGE itMISS LATENCY: 1.61432 cycles
LLC AVERAGE dtMISS LATENCY: 8.24192 cycles
LLC PAGE CROSSINGS (TLB HIT):         0 
LLC PAGE CROSSINGS (TLB MISS):         0 
LLC AVERAGE MISS LATENCY: 163.318 cycles

PageTableWalker TOTAL       ACCESS:      83742  
PageTableWalker AVERAGE LATENCY: 4.32929 cycles
PageTableWalker TOTAL LATENCY: 362543 cycles

DRAM Statistics
Channel 0
 RQ ROW_BUFFER_HIT:     475792
  ROW_BUFFER_MISS:    1219193
 AVG DBUS CONGESTED CYCLE:     3.6496
 WQ ROW_BUFFER_HIT:      36877
  ROW_BUFFER_MISS:      33775  FULL:          0

