last_page:0x200000000000000
VMEM_RES_CAP:0x100000
PAGE_SIZE:4096
LOG2_PAGE_SIZE:12
LOG2_PAGE_TABLE_SIZE:9
page_table_levels:5
WARNING: physical memory size is smaller than virtual memory size
FDiP enabled with aggresivity 16

*** ChampSim Multicore Out-of-Order Simulator ***

Warmup Instructions: 50000000
Simulation Instructions: 100000000
Number of CPUs: 1
Small page size: 4096
Large page size: 2097152

CPU 0 Bimodal branch predictor
Basic BTB sets: 1024 ways: 8 indirect buffer size: 4096 RAS size: 64
Instruction page size distrubution: 0
Loading instruction page size distribution from /home/bsc/bsc018186/scratch/itp_asplos25_AE/dump/srv664_ap.pdst
Data page size distrubution: 0
Loading data page size distribution from /home/bsc/bsc018186/scratch/itp_asplos25_AE/dump/srv664_ap.pdst
cpu0_L2C IP-based stride prefetcher
cpu0_L1D next line prefetcher
CHiRPing...
cpu0_L1I next line prefetcher
Off-chip DRAM Size: 4 GiB Channels: 1 Width: 64-bit Data Rate: 3200 MT/s
Heartbeat CPU 0 instructions: 10000002 cycles: 2500179 heartbeat IPC: 3.99972 cumulative IPC: 3.99972 (Simulation time: 0 hr 0 min 39 sec) 
Heartbeat CPU 0 instructions: 20000000 cycles: 5000194 heartbeat IPC: 3.99998 cumulative IPC: 3.99985 (Simulation time: 0 hr 1 min 20 sec) 
Heartbeat CPU 0 instructions: 30000002 cycles: 7500241 heartbeat IPC: 3.99993 cumulative IPC: 3.99988 (Simulation time: 0 hr 2 min 2 sec) 
Heartbeat CPU 0 instructions: 40000001 cycles: 10000355 heartbeat IPC: 3.99982 cumulative IPC: 3.99986 (Simulation time: 0 hr 2 min 43 sec) 
Heartbeat CPU 0 instructions: 50000000 cycles: 12500405 heartbeat IPC: 3.99992 cumulative IPC: 3.99988 (Simulation time: 0 hr 3 min 24 sec) 
Warmup finished CPU 0 instructions: 50000000 cycles: 12500406 cumulative IPC: 3.99988 (Simulation time: 0 hr 3 min 24 sec) 

Warmup complete CPU 0 instructions: 50000000 cycles: 12500406 (Simulation time: 0 hr 3 min 24 sec) 

Heartbeat CPU 0 instructions: 60000002 cycles: 27898453 heartbeat IPC: 0.649434 cumulative IPC: 0.649434 (Simulation time: 0 hr 4 min 30 sec) 
Heartbeat CPU 0 instructions: 70000003 cycles: 43287540 heartbeat IPC: 0.649812 cumulative IPC: 0.649623 (Simulation time: 0 hr 5 min 37 sec) 
Heartbeat CPU 0 instructions: 80000004 cycles: 58628283 heartbeat IPC: 0.651859 cumulative IPC: 0.650367 (Simulation time: 0 hr 6 min 43 sec) 
Heartbeat CPU 0 instructions: 90000000 cycles: 73221438 heartbeat IPC: 0.685253 cumulative IPC: 0.658751 (Simulation time: 0 hr 7 min 48 sec) 
Heartbeat CPU 0 instructions: 100000003 cycles: 89220719 heartbeat IPC: 0.625029 cumulative IPC: 0.651718 (Simulation time: 0 hr 8 min 56 sec) 
*** Reached end of trace: /gpfs/projects/bsc18/MN4/bsc18/romol/ChampSim/traces/qualcomm_srv/srv664_ap.champsimtrace.xz
Heartbeat CPU 0 instructions: 110000001 cycles: 104742867 heartbeat IPC: 0.644241 cumulative IPC: 0.65046 (Simulation time: 0 hr 10 min 4 sec) 
Heartbeat CPU 0 instructions: 120000001 cycles: 119808122 heartbeat IPC: 0.66378 cumulative IPC: 0.65233 (Simulation time: 0 hr 11 min 10 sec) 
Heartbeat CPU 0 instructions: 130000002 cycles: 135039489 heartbeat IPC: 0.65654 cumulative IPC: 0.652853 (Simulation time: 0 hr 12 min 16 sec) 
Heartbeat CPU 0 instructions: 140000002 cycles: 150265412 heartbeat IPC: 0.656775 cumulative IPC: 0.653287 (Simulation time: 0 hr 13 min 22 sec) 
Heartbeat CPU 0 instructions: 150000000 cycles: 165311970 heartbeat IPC: 0.664604 cumulative IPC: 0.654401 (Simulation time: 0 hr 14 min 27 sec) 
Simulation finished CPU 0 instructions: 100000000 cycles: 152811565 cumulative IPC: 0.654401 (Simulation time: 0 hr 14 min 27 sec) 

Simulation complete CPU 0 instructions: 100000000 cycles: 152811565 (Simulation time: 0 hr 14 min 27 sec) 


ChampSim completed all CPUs

Saving instructions large page distribution to /home/bsc/bsc018186/scratch/itp_asplos25_AE/dump/srv664_ap.pdst...
Saving data large page distribution to /home/bsc/bsc018186/scratch/itp_asplos25_AE/dump/srv664_ap.pdst...
=== Simulation ===
CPU 0 runs /gpfs/projects/bsc18/MN4/bsc18/romol/ChampSim/traces/qualcomm_srv/srv664_ap.champsimtrace.xz

Region of Interest Statistics

CPU 0 cumulative IPC: 0.654401 instructions: 100000000 cycles: 152811565
CPU 0 Branch Prediction Accuracy: 83.5334% MPKI: 29.4332 Average ROB Occupancy at Mispredict: 12.898
Branch type MPKI
BRANCH_DIRECT_JUMP: 1.00121
BRANCH_INDIRECT: 15.2231
BRANCH_CONDITIONAL: 9.59597
BRANCH_DIRECT_CALL: 1.79967
BRANCH_INDIRECT_CALL: 0.508941
BRANCH_RETURN: 1.30437

Instructions large pages: 0
Instructions small pages: 1032
Large page distribution for instructions: 0%

Data large pages: 0
Data small pages: 10358
Large page distribution for data: 0%

cpu0_L1I TOTAL       ACCESS:   34695643  HIT:   26892088  MISS:    7803555  iACCESS:   34695643  iHIT:   26892088  iMISS:    7803555  dACCESS:          0  dHIT:          0  dMISS:          0  itACCESS:          0  itHIT:          0  itMISS:          0  dtACCESS:          0  dtHIT:          0  dtMISS:          0
cpu0_L1I LOAD         ACCESS:   10203354  HIT:    8001768  MISS:    2201586  iACCESS:   10203354  iHIT:    8001768  iMISS:    2201586  dACCESS:          0  dHIT:          0  dMISS:          0  itACCESS:          0  itHIT:          0  itMISS:          0  dtACCESS:          0  dtHIT:          0  dtMISS:          0
cpu0_L1I RFO          ACCESS:          0  HIT:          0  MISS:          0  iACCESS:          0  iHIT:          0  iMISS:          0  dACCESS:          0  dHIT:          0  dMISS:          0  itACCESS:          0  itHIT:          0  itMISS:          0  dtACCESS:          0  dtHIT:          0  dtMISS:          0
cpu0_L1I PREFETCH     ACCESS:   24492289  HIT:   18890320  MISS:    5601969  iACCESS:   24492289  iHIT:   18890320  iMISS:    5601969  dACCESS:          0  dHIT:          0  dMISS:          0  itACCESS:          0  itHIT:          0  itMISS:          0  dtACCESS:          0  dtHIT:          0  dtMISS:          0
cpu0_L1I WRITE        ACCESS:          0  HIT:          0  MISS:          0  iACCESS:          0  iHIT:          0  iMISS:          0  dACCESS:          0  dHIT:          0  dMISS:          0  itACCESS:          0  itHIT:          0  itMISS:          0  dtACCESS:          0  dtHIT:          0  dtMISS:          0
cpu0_L1I TRANSLATION  ACCESS:          0  HIT:          0  MISS:          0  iACCESS:          0  iHIT:          0  iMISS:          0  dACCESS:          0  dHIT:          0  dMISS:          0  itACCESS:          0  itHIT:          0  itMISS:          0  dtACCESS:          0  dtHIT:          0  dtMISS:          0
cpu0_L1I PREFETCH  REQUESTED:   27085256  ISSUED:   27085256  CROSSED:          0  USEFUL:    1887804  USELESS:     628439
cpu0_L1I AVERAGE iMISS LATENCY: 12.9165 cycles
cpu0_L1I AVERAGE dMISS LATENCY: 0 cycles
cpu0_L1I AVERAGE itMISS LATENCY: 0 cycles
cpu0_L1I AVERAGE dtMISS LATENCY: 0 cycles
cpu0_L1I PAGE CROSSINGS (TLB HIT):         0 
cpu0_L1I PAGE CROSSINGS (TLB MISS):         0 
cpu0_L1I AVERAGE MISS LATENCY: 12.9165 cycles
cpu0_ITLB TOTAL       ACCESS:   28969715  HIT:   26976466  MISS:    1993249  iACCESS:   28969715  iHIT:   26976466  iMISS:    1993249  dACCESS:          0  dHIT:          0  dMISS:          0  itACCESS:          0  itHIT:          0  itMISS:          0  dtACCESS:          0  dtHIT:          0  dtMISS:          0
cpu0_ITLB LOAD         ACCESS:   28969715  HIT:   26976466  MISS:    1993249  iACCESS:   28969715  iHIT:   26976466  iMISS:    1993249  dACCESS:          0  dHIT:          0  dMISS:          0  itACCESS:          0  itHIT:          0  itMISS:          0  dtACCESS:          0  dtHIT:          0  dtMISS:          0
cpu0_ITLB RFO          ACCESS:          0  HIT:          0  MISS:          0  iACCESS:          0  iHIT:          0  iMISS:          0  dACCESS:          0  dHIT:          0  dMISS:          0  itACCESS:          0  itHIT:          0  itMISS:          0  dtACCESS:          0  dtHIT:          0  dtMISS:          0
cpu0_ITLB PREFETCH     ACCESS:          0  HIT:          0  MISS:          0  iACCESS:          0  iHIT:          0  iMISS:          0  dACCESS:          0  dHIT:          0  dMISS:          0  itACCESS:          0  itHIT:          0  itMISS:          0  dtACCESS:          0  dtHIT:          0  dtMISS:          0
cpu0_ITLB WRITE        ACCESS:          0  HIT:          0  MISS:          0  iACCESS:          0  iHIT:          0  iMISS:          0  dACCESS:          0  dHIT:          0  dMISS:          0  itACCESS:          0  itHIT:          0  itMISS:          0  dtACCESS:          0  dtHIT:          0  dtMISS:          0
cpu0_ITLB TRANSLATION  ACCESS:          0  HIT:          0  MISS:          0  iACCESS:          0  iHIT:          0  iMISS:          0  dACCESS:          0  dHIT:          0  dMISS:          0  itACCESS:          0  itHIT:          0  itMISS:          0  dtACCESS:          0  dtHIT:          0  dtMISS:          0
cpu0_ITLB PREFETCH  REQUESTED:          0  ISSUED:          0  CROSSED:          0  USEFUL:     320919  USELESS:      67589
cpu0_ITLB AVERAGE iMISS LATENCY: 5.29685 cycles
cpu0_ITLB AVERAGE dMISS LATENCY: 0 cycles
cpu0_ITLB AVERAGE itMISS LATENCY: 0 cycles
cpu0_ITLB AVERAGE dtMISS LATENCY: 0 cycles
cpu0_ITLB PAGE CROSSINGS (TLB HIT):         0 
cpu0_ITLB PAGE CROSSINGS (TLB MISS):         0 
cpu0_ITLB AVERAGE MISS LATENCY: 5.29685 cycles
cpu0_DTLB TOTAL       ACCESS:   27692763  HIT:   25608463  MISS:    2084300  iACCESS:          0  iHIT:          0  iMISS:          0  dACCESS:   27692763  dHIT:   25608463  dMISS:    2084300  itACCESS:          0  itHIT:          0  itMISS:          0  dtACCESS:          0  dtHIT:          0  dtMISS:          0
cpu0_DTLB LOAD         ACCESS:   27692763  HIT:   25608463  MISS:    2084300  iACCESS:          0  iHIT:          0  iMISS:          0  dACCESS:   27692763  dHIT:   25608463  dMISS:    2084300  itACCESS:          0  itHIT:          0  itMISS:          0  dtACCESS:          0  dtHIT:          0  dtMISS:          0
cpu0_DTLB RFO          ACCESS:          0  HIT:          0  MISS:          0  iACCESS:          0  iHIT:          0  iMISS:          0  dACCESS:          0  dHIT:          0  dMISS:          0  itACCESS:          0  itHIT:          0  itMISS:          0  dtACCESS:          0  dtHIT:          0  dtMISS:          0
cpu0_DTLB PREFETCH     ACCESS:          0  HIT:          0  MISS:          0  iACCESS:          0  iHIT:          0  iMISS:          0  dACCESS:          0  dHIT:          0  dMISS:          0  itACCESS:          0  itHIT:          0  itMISS:          0  dtACCESS:          0  dtHIT:          0  dtMISS:          0
cpu0_DTLB WRITE        ACCESS:          0  HIT:          0  MISS:          0  iACCESS:          0  iHIT:          0  iMISS:          0  dACCESS:          0  dHIT:          0  dMISS:          0  itACCESS:          0  itHIT:          0  itMISS:          0  dtACCESS:          0  dtHIT:          0  dtMISS:          0
cpu0_DTLB TRANSLATION  ACCESS:          0  HIT:          0  MISS:          0  iACCESS:          0  iHIT:          0  iMISS:          0  dACCESS:          0  dHIT:          0  dMISS:          0  itACCESS:          0  itHIT:          0  itMISS:          0  dtACCESS:          0  dtHIT:          0  dtMISS:          0
cpu0_DTLB PREFETCH  REQUESTED:          0  ISSUED:          0  CROSSED:          0  USEFUL:          0  USELESS:          0
cpu0_DTLB AVERAGE iMISS LATENCY: 0 cycles
cpu0_DTLB AVERAGE dMISS LATENCY: 14.4433 cycles
cpu0_DTLB AVERAGE itMISS LATENCY: 0 cycles
cpu0_DTLB AVERAGE dtMISS LATENCY: 0 cycles
cpu0_DTLB PAGE CROSSINGS (TLB HIT):         0 
cpu0_DTLB PAGE CROSSINGS (TLB MISS):         0 
cpu0_DTLB AVERAGE MISS LATENCY: 14.4433 cycles
cpu0_STLB TOTAL       ACCESS:    1620433  HIT:    1449621  MISS:     170812  iACCESS:     388509  iHIT:     326741  iMISS:      61768  dACCESS:    1231924  dHIT:    1122880  dMISS:     109044  itACCESS:          0  itHIT:          0  itMISS:          0  dtACCESS:          0  dtHIT:          0  dtMISS:          0
cpu0_STLB LOAD         ACCESS:    1620433  HIT:    1449621  MISS:     170812  iACCESS:     388509  iHIT:     326741  iMISS:      61768  dACCESS:    1231924  dHIT:    1122880  dMISS:     109044  itACCESS:          0  itHIT:          0  itMISS:          0  dtACCESS:          0  dtHIT:          0  dtMISS:          0
cpu0_STLB RFO          ACCESS:          0  HIT:          0  MISS:          0  iACCESS:          0  iHIT:          0  iMISS:          0  dACCESS:          0  dHIT:          0  dMISS:          0  itACCESS:          0  itHIT:          0  itMISS:          0  dtACCESS:          0  dtHIT:          0  dtMISS:          0
cpu0_STLB PREFETCH     ACCESS:          0  HIT:          0  MISS:          0  iACCESS:          0  iHIT:          0  iMISS:          0  dACCESS:          0  dHIT:          0  dMISS:          0  itACCESS:          0  itHIT:          0  itMISS:          0  dtACCESS:          0  dtHIT:          0  dtMISS:          0
cpu0_STLB WRITE        ACCESS:          0  HIT:          0  MISS:          0  iACCESS:          0  iHIT:          0  iMISS:          0  dACCESS:          0  dHIT:          0  dMISS:          0  itACCESS:          0  itHIT:          0  itMISS:          0  dtACCESS:          0  dtHIT:          0  dtMISS:          0
cpu0_STLB TRANSLATION  ACCESS:          0  HIT:          0  MISS:          0  iACCESS:          0  iHIT:          0  iMISS:          0  dACCESS:          0  dHIT:          0  dMISS:          0  itACCESS:          0  itHIT:          0  itMISS:          0  dtACCESS:          0  dtHIT:          0  dtMISS:          0
cpu0_STLB PREFETCH  REQUESTED:          0  ISSUED:          0  CROSSED:          0  USEFUL:          0  USELESS:          0
cpu0_STLB AVERAGE iMISS LATENCY: 43.8058 cycles
cpu0_STLB AVERAGE dMISS LATENCY: 118.708 cycles
cpu0_STLB AVERAGE itMISS LATENCY: 0 cycles
cpu0_STLB AVERAGE dtMISS LATENCY: 0 cycles
cpu0_STLB PAGE CROSSINGS (TLB HIT):         0 
cpu0_STLB PAGE CROSSINGS (TLB MISS):         0 
cpu0_STLB AVERAGE MISS LATENCY: 162.514 cycles
cpu0_L1D TOTAL       ACCESS:   41422306  HIT:   37990437  MISS:    3431869  iACCESS:          0  iHIT:          0  iMISS:          0  dACCESS:   41189195  dHIT:   37969905  dMISS:    3219290  itACCESS:      67189  itHIT:       9486  itMISS:      57703  dtACCESS:     165922  dtHIT:      11046  dtMISS:     154876
cpu0_L1D LOAD         ACCESS:   18874217  HIT:   17406988  MISS:    1467229  iACCESS:          0  iHIT:          0  iMISS:          0  dACCESS:   18874217  dHIT:   17406988  dMISS:    1467229  itACCESS:          0  itHIT:          0  itMISS:          0  dtACCESS:          0  dtHIT:          0  dtMISS:          0
cpu0_L1D RFO          ACCESS:          0  HIT:          0  MISS:          0  iACCESS:          0  iHIT:          0  iMISS:          0  dACCESS:          0  dHIT:          0  dMISS:          0  itACCESS:          0  itHIT:          0  itMISS:          0  dtACCESS:          0  dtHIT:          0  dtMISS:          0
cpu0_L1D PREFETCH     ACCESS:   12118514  HIT:   10804917  MISS:    1313597  iACCESS:          0  iHIT:          0  iMISS:          0  dACCESS:   12118514  dHIT:   10804917  dMISS:    1313597  itACCESS:          0  itHIT:          0  itMISS:          0  dtACCESS:          0  dtHIT:          0  dtMISS:          0
cpu0_L1D WRITE        ACCESS:   10196464  HIT:    9758000  MISS:     438464  iACCESS:          0  iHIT:          0  iMISS:          0  dACCESS:   10196464  dHIT:    9758000  dMISS:     438464  itACCESS:          0  itHIT:          0  itMISS:          0  dtACCESS:          0  dtHIT:          0  dtMISS:          0
cpu0_L1D TRANSLATION  ACCESS:     233111  HIT:      20532  MISS:     212579  iACCESS:          0  iHIT:          0  iMISS:          0  dACCESS:          0  dHIT:          0  dMISS:          0  itACCESS:      67189  itHIT:       9486  itMISS:      57703  dtACCESS:     165922  dtHIT:      11046  dtMISS:     154876
cpu0_L1D PREFETCH  REQUESTED:   18874217  ISSUED:   16984240  CROSSED:          0  USEFUL:     305091  USELESS:     699188
cpu0_L1D AVERAGE iMISS LATENCY: 0 cycles
cpu0_L1D AVERAGE dMISS LATENCY: 33.5086 cycles
cpu0_L1D AVERAGE itMISS LATENCY: 2.0228 cycles
cpu0_L1D AVERAGE dtMISS LATENCY: 5.14642 cycles
cpu0_L1D PAGE CROSSINGS (TLB HIT):         0 
cpu0_L1D PAGE CROSSINGS (TLB MISS):         0 
cpu0_L1D AVERAGE MISS LATENCY: 40.6778 cycles
cpu0_L2C TOTAL       ACCESS:    6920258  HIT:    4058452  MISS:    2861806  iACCESS:    3282550  iHIT:    2217636  iMISS:    1064914  dACCESS:    3435458  dHIT:    1809848  dMISS:    1625610  itACCESS:      57703  itHIT:      10621  itMISS:      47082  dtACCESS:     144547  dtHIT:      20347  dtMISS:     124200
cpu0_L2C LOAD         ACCESS:    1729732  HIT:    1054318  MISS:     675414  iACCESS:     801345  iHIT:     569581  iMISS:     231764  dACCESS:     928387  dHIT:     484737  dMISS:     443650  itACCESS:          0  itHIT:          0  itMISS:          0  dtACCESS:          0  dtHIT:          0  dtMISS:          0
cpu0_L2C RFO          ACCESS:     157312  HIT:      72190  MISS:      85122  iACCESS:          0  iHIT:          0  iMISS:          0  dACCESS:     157312  dHIT:      72190  dMISS:      85122  itACCESS:          0  itHIT:          0  itMISS:          0  dtACCESS:          0  dtHIT:          0  dtMISS:          0
cpu0_L2C PREFETCH     ACCESS:    4546444  HIT:    2617339  MISS:    1929105  iACCESS:    2481205  iHIT:    1648055  iMISS:     833150  dACCESS:    2065239  dHIT:     969284  dMISS:    1095955  itACCESS:          0  itHIT:          0  itMISS:          0  dtACCESS:          0  dtHIT:          0  dtMISS:          0
cpu0_L2C WRITE        ACCESS:     284520  HIT:     283637  MISS:        883  iACCESS:          0  iHIT:          0  iMISS:          0  dACCESS:     284520  dHIT:     283637  dMISS:        883  itACCESS:          0  itHIT:          0  itMISS:          0  dtACCESS:          0  dtHIT:          0  dtMISS:          0
cpu0_L2C TRANSLATION  ACCESS:     202250  HIT:      30968  MISS:     171282  iACCESS:          0  iHIT:          0  iMISS:          0  dACCESS:          0  dHIT:          0  dMISS:          0  itACCESS:      57703  itHIT:      10621  itMISS:      47082  dtACCESS:     144547  dtHIT:      20347  dtMISS:     124200
cpu0_L2C PREFETCH  REQUESTED:    1306569  ISSUED:    1306569  CROSSED:          0  USEFUL:     304783  USELESS:     223199
cpu0_L2C AVERAGE iMISS LATENCY: 24.9928 cycles
cpu0_L2C AVERAGE dMISS LATENCY: 47.0706 cycles
cpu0_L2C AVERAGE itMISS LATENCY: 2.22732 cycles
cpu0_L2C AVERAGE dtMISS LATENCY: 5.6697 cycles
cpu0_L2C PAGE CROSSINGS (TLB HIT):         0 
cpu0_L2C PAGE CROSSINGS (TLB MISS):         0 
cpu0_L2C AVERAGE MISS LATENCY: 79.9604 cycles
LLC TOTAL       ACCESS:    2893538  HIT:    1789683  MISS:    1103855  iACCESS:    1013731  iHIT:     666322  iMISS:     347409  dACCESS:    1708525  dHIT:    1060458  dMISS:     648067  itACCESS:      47082  itHIT:      15413  itMISS:      31669  dtACCESS:     124200  dtHIT:      47490  dtMISS:      76710
LLC LOAD         ACCESS:     674343  HIT:     433722  MISS:     240621  iACCESS:     230948  iHIT:     154787  iMISS:      76161  dACCESS:     443395  dHIT:     278935  dMISS:     164460  itACCESS:          0  itHIT:          0  itMISS:          0  dtACCESS:          0  dtHIT:          0  dtMISS:          0
LLC RFO          ACCESS:      85121  HIT:      42915  MISS:      42206  iACCESS:          0  iHIT:          0  iMISS:          0  dACCESS:      85121  dHIT:      42915  dMISS:      42206  itACCESS:          0  itHIT:          0  itMISS:          0  dtACCESS:          0  dtHIT:          0  dtMISS:          0
LLC PREFETCH     ACCESS:    1826846  HIT:    1120833  MISS:     706013  iACCESS:     782783  iHIT:     511535  iMISS:     271248  dACCESS:    1044063  dHIT:     609298  dMISS:     434765  itACCESS:          0  itHIT:          0  itMISS:          0  dtACCESS:          0  dtHIT:          0  dtMISS:          0
LLC WRITE        ACCESS:     135946  HIT:     129310  MISS:       6636  iACCESS:          0  iHIT:          0  iMISS:          0  dACCESS:     135946  dHIT:     129310  dMISS:       6636  itACCESS:          0  itHIT:          0  itMISS:          0  dtACCESS:          0  dtHIT:          0  dtMISS:          0
LLC TRANSLATION  ACCESS:     171282  HIT:      62903  MISS:     108379  iACCESS:          0  iHIT:          0  iMISS:          0  dACCESS:          0  dHIT:          0  dMISS:          0  itACCESS:      47082  itHIT:      15413  itMISS:      31669  dtACCESS:     124200  dtHIT:      47490  dtMISS:      76710
LLC PREFETCH  REQUESTED:          0  ISSUED:          0  CROSSED:          0  USEFUL:          0  USELESS:          0
LLC AVERAGE iMISS LATENCY: 46.946 cycles
LLC AVERAGE dMISS LATENCY: 94.451 cycles
LLC AVERAGE itMISS LATENCY: 4.93725 cycles
LLC AVERAGE dtMISS LATENCY: 12.4985 cycles
LLC PAGE CROSSINGS (TLB HIT):         0 
LLC PAGE CROSSINGS (TLB MISS):         0 
LLC AVERAGE MISS LATENCY: 158.833 cycles

PageTableWalker TOTAL       ACCESS:      87967  
PageTableWalker AVERAGE LATENCY: 5.2176 cycles
PageTableWalker TOTAL LATENCY: 458976 cycles

DRAM Statistics
Channel 0
 RQ ROW_BUFFER_HIT:     282647
  ROW_BUFFER_MISS:     814495
 AVG DBUS CONGESTED CYCLE:    3.61857
 WQ ROW_BUFFER_HIT:      23070
  ROW_BUFFER_MISS:      21833  FULL:          0

