last_page:0x200000000000000
VMEM_RES_CAP:0x100000
PAGE_SIZE:4096
LOG2_PAGE_SIZE:12
LOG2_PAGE_TABLE_SIZE:9
page_table_levels:5
WARNING: physical memory size is smaller than virtual memory size
FDiP enabled with aggresivity 16

*** ChampSim Multicore Out-of-Order Simulator ***

Warmup Instructions: 50000000
Simulation Instructions: 100000000
Number of CPUs: 1
Small page size: 4096
Large page size: 2097152

CPU 0 Bimodal branch predictor
Basic BTB sets: 1024 ways: 8 indirect buffer size: 4096 RAS size: 64
Instruction page size distrubution: 0
Loading instruction page size distribution from /home/bsc/bsc018186/scratch/itp_asplos25_AE/dump/srv612_ap.pdst
Data page size distrubution: 0
Loading data page size distribution from /home/bsc/bsc018186/scratch/itp_asplos25_AE/dump/srv612_ap.pdst
cpu0_L2C IP-based stride prefetcher
cpu0_L2C is using xPTP/LRU
	TLB_LOWER_STRESS_THRESHOLD:1
	TLB_UPPER_STRESS_THRESHOLD:9
	MIN_EVICTION_POSITION:4
cpu0_L1D next line prefetcher
cpu0_STLB using iTP with max lru@8
cpu0_STLB using iTP with instr@0 and data@2
Init sat counter with 3 bits (max:50).
cpu0_L1I next line prefetcher
Off-chip DRAM Size: 4 GiB Channels: 1 Width: 64-bit Data Rate: 3200 MT/s
Heartbeat CPU 0 instructions: 10000004 cycles: 2781443 heartbeat IPC: 3.59526 cumulative IPC: 3.59526 (Simulation time: 0 hr 0 min 40 sec) 
Heartbeat CPU 0 instructions: 20000001 cycles: 5759362 heartbeat IPC: 3.35805 cumulative IPC: 3.47261 (Simulation time: 0 hr 1 min 23 sec) 
Heartbeat CPU 0 instructions: 30000004 cycles: 8545462 heartbeat IPC: 3.58925 cumulative IPC: 3.51064 (Simulation time: 0 hr 2 min 0 sec) 
Heartbeat CPU 0 instructions: 40000000 cycles: 11194324 heartbeat IPC: 3.77521 cumulative IPC: 3.57324 (Simulation time: 0 hr 2 min 37 sec) 
Heartbeat CPU 0 instructions: 50000000 cycles: 13718695 heartbeat IPC: 3.96139 cumulative IPC: 3.64467 (Simulation time: 0 hr 3 min 13 sec) 
Warmup finished CPU 0 instructions: 50000000 cycles: 13718696 cumulative IPC: 3.64467 (Simulation time: 0 hr 3 min 13 sec) 

Warmup complete CPU 0 instructions: 50000000 cycles: 13718696 (Simulation time: 0 hr 3 min 13 sec) 

Heartbeat CPU 0 instructions: 60000001 cycles: 55787605 heartbeat IPC: 0.237706 cumulative IPC: 0.237706 (Simulation time: 0 hr 5 min 32 sec) 
Heartbeat CPU 0 instructions: 70000003 cycles: 111100419 heartbeat IPC: 0.18079 cumulative IPC: 0.205378 (Simulation time: 0 hr 8 min 29 sec) 
Heartbeat CPU 0 instructions: 80000000 cycles: 145124819 heartbeat IPC: 0.293907 cumulative IPC: 0.2283 (Simulation time: 0 hr 10 min 26 sec) 
Heartbeat CPU 0 instructions: 90000003 cycles: 174300041 heartbeat IPC: 0.342757 cumulative IPC: 0.249095 (Simulation time: 0 hr 12 min 10 sec) 
Heartbeat CPU 0 instructions: 100000001 cycles: 197313177 heartbeat IPC: 0.434535 cumulative IPC: 0.27234 (Simulation time: 0 hr 13 min 39 sec) 
*** Reached end of trace: /gpfs/projects/bsc18/MN4/bsc18/romol/ChampSim/traces/qualcomm_srv/srv612_ap.champsimtrace.xz
Heartbeat CPU 0 instructions: 110000000 cycles: 211579466 heartbeat IPC: 0.700954 cumulative IPC: 0.303244 (Simulation time: 0 hr 14 min 50 sec) 
Heartbeat CPU 0 instructions: 120000004 cycles: 220834508 heartbeat IPC: 1.0805 cumulative IPC: 0.337976 (Simulation time: 0 hr 15 min 49 sec) 
Heartbeat CPU 0 instructions: 130000004 cycles: 229101947 heartbeat IPC: 1.20957 cumulative IPC: 0.371431 (Simulation time: 0 hr 16 min 43 sec) 
Heartbeat CPU 0 instructions: 140000000 cycles: 236749247 heartbeat IPC: 1.30766 cumulative IPC: 0.403533 (Simulation time: 0 hr 17 min 32 sec) 
Heartbeat CPU 0 instructions: 150000000 cycles: 257635386 heartbeat IPC: 0.478787 cumulative IPC: 0.409977 (Simulation time: 0 hr 18 min 51 sec) 
Simulation finished CPU 0 instructions: 100000000 cycles: 243916691 cumulative IPC: 0.409977 (Simulation time: 0 hr 18 min 51 sec) 

Simulation complete CPU 0 instructions: 100000000 cycles: 243916691 (Simulation time: 0 hr 18 min 51 sec) 


ChampSim completed all CPUs

Saving instructions large page distribution to /home/bsc/bsc018186/scratch/itp_asplos25_AE/dump/srv612_ap.pdst...
Saving data large page distribution to /home/bsc/bsc018186/scratch/itp_asplos25_AE/dump/srv612_ap.pdst...
=== Simulation ===
CPU 0 runs /gpfs/projects/bsc18/MN4/bsc18/romol/ChampSim/traces/qualcomm_srv/srv612_ap.champsimtrace.xz

Region of Interest Statistics

CPU 0 cumulative IPC: 0.409977 instructions: 100000000 cycles: 243916691
CPU 0 Branch Prediction Accuracy: 96.6997% MPKI: 7.15989 Average ROB Occupancy at Mispredict: 85.8752
Branch type MPKI
BRANCH_DIRECT_JUMP: 0.0386401
BRANCH_INDIRECT: 3.27509
BRANCH_CONDITIONAL: 3.54837
BRANCH_DIRECT_CALL: 0.0661401
BRANCH_INDIRECT_CALL: 0.173461
BRANCH_RETURN: 0.0582001

Instructions large pages: 0
Instructions small pages: 1273
Large page distribution for instructions: 0%

Data large pages: 0
Data small pages: 21910
Large page distribution for data: 0%

cpu0_L1I TOTAL       ACCESS:   15115698  HIT:   14645593  MISS:     470105  iACCESS:   15115698  iHIT:   14645593  iMISS:     470105  dACCESS:          0  dHIT:          0  dMISS:          0  itACCESS:          0  itHIT:          0  itMISS:          0  dtACCESS:          0  dtHIT:          0  dtMISS:          0
cpu0_L1I LOAD         ACCESS:     880836  HIT:     738747  MISS:     142089  iACCESS:     880836  iHIT:     738747  iMISS:     142089  dACCESS:          0  dHIT:          0  dMISS:          0  itACCESS:          0  itHIT:          0  itMISS:          0  dtACCESS:          0  dtHIT:          0  dtMISS:          0
cpu0_L1I RFO          ACCESS:          0  HIT:          0  MISS:          0  iACCESS:          0  iHIT:          0  iMISS:          0  dACCESS:          0  dHIT:          0  dMISS:          0  itACCESS:          0  itHIT:          0  itMISS:          0  dtACCESS:          0  dtHIT:          0  dtMISS:          0
cpu0_L1I PREFETCH     ACCESS:   14234862  HIT:   13906846  MISS:     328016  iACCESS:   14234862  iHIT:   13906846  iMISS:     328016  dACCESS:          0  dHIT:          0  dMISS:          0  itACCESS:          0  itHIT:          0  itMISS:          0  dtACCESS:          0  dtHIT:          0  dtMISS:          0
cpu0_L1I WRITE        ACCESS:          0  HIT:          0  MISS:          0  iACCESS:          0  iHIT:          0  iMISS:          0  dACCESS:          0  dHIT:          0  dMISS:          0  itACCESS:          0  itHIT:          0  itMISS:          0  dtACCESS:          0  dtHIT:          0  dtMISS:          0
cpu0_L1I TRANSLATION  ACCESS:          0  HIT:          0  MISS:          0  iACCESS:          0  iHIT:          0  iMISS:          0  dACCESS:          0  dHIT:          0  dMISS:          0  itACCESS:          0  itHIT:          0  itMISS:          0  dtACCESS:          0  dtHIT:          0  dtMISS:          0
cpu0_L1I PREFETCH  REQUESTED:   14442519  ISSUED:   14437989  CROSSED:          0  USEFUL:      95069  USELESS:      35724
cpu0_L1I AVERAGE iMISS LATENCY: 19.5188 cycles
cpu0_L1I AVERAGE dMISS LATENCY: 0 cycles
cpu0_L1I AVERAGE itMISS LATENCY: 0 cycles
cpu0_L1I AVERAGE dtMISS LATENCY: 0 cycles
cpu0_L1I PAGE CROSSINGS (TLB HIT):         0 
cpu0_L1I PAGE CROSSINGS (TLB MISS):         0 
cpu0_L1I AVERAGE MISS LATENCY: 19.5188 cycles
cpu0_ITLB TOTAL       ACCESS:   13526842  HIT:   13404887  MISS:     121955  iACCESS:   13526842  iHIT:   13404887  iMISS:     121955  dACCESS:          0  dHIT:          0  dMISS:          0  itACCESS:          0  itHIT:          0  itMISS:          0  dtACCESS:          0  dtHIT:          0  dtMISS:          0
cpu0_ITLB LOAD         ACCESS:   13526842  HIT:   13404887  MISS:     121955  iACCESS:   13526842  iHIT:   13404887  iMISS:     121955  dACCESS:          0  dHIT:          0  dMISS:          0  itACCESS:          0  itHIT:          0  itMISS:          0  dtACCESS:          0  dtHIT:          0  dtMISS:          0
cpu0_ITLB RFO          ACCESS:          0  HIT:          0  MISS:          0  iACCESS:          0  iHIT:          0  iMISS:          0  dACCESS:          0  dHIT:          0  dMISS:          0  itACCESS:          0  itHIT:          0  itMISS:          0  dtACCESS:          0  dtHIT:          0  dtMISS:          0
cpu0_ITLB PREFETCH     ACCESS:          0  HIT:          0  MISS:          0  iACCESS:          0  iHIT:          0  iMISS:          0  dACCESS:          0  dHIT:          0  dMISS:          0  itACCESS:          0  itHIT:          0  itMISS:          0  dtACCESS:          0  dtHIT:          0  dtMISS:          0
cpu0_ITLB WRITE        ACCESS:          0  HIT:          0  MISS:          0  iACCESS:          0  iHIT:          0  iMISS:          0  dACCESS:          0  dHIT:          0  dMISS:          0  itACCESS:          0  itHIT:          0  itMISS:          0  dtACCESS:          0  dtHIT:          0  dtMISS:          0
cpu0_ITLB TRANSLATION  ACCESS:          0  HIT:          0  MISS:          0  iACCESS:          0  iHIT:          0  iMISS:          0  dACCESS:          0  dHIT:          0  dMISS:          0  itACCESS:          0  itHIT:          0  itMISS:          0  dtACCESS:          0  dtHIT:          0  dtMISS:          0
cpu0_ITLB PREFETCH  REQUESTED:          0  ISSUED:          0  CROSSED:          0  USEFUL:      16487  USELESS:       4096
cpu0_ITLB AVERAGE iMISS LATENCY: 6.79572 cycles
cpu0_ITLB AVERAGE dMISS LATENCY: 0 cycles
cpu0_ITLB AVERAGE itMISS LATENCY: 0 cycles
cpu0_ITLB AVERAGE dtMISS LATENCY: 0 cycles
cpu0_ITLB PAGE CROSSINGS (TLB HIT):         0 
cpu0_ITLB PAGE CROSSINGS (TLB MISS):         0 
cpu0_ITLB AVERAGE MISS LATENCY: 6.79572 cycles
cpu0_DTLB TOTAL       ACCESS:   27358916  HIT:   22617895  MISS:    4741021  iACCESS:          0  iHIT:          0  iMISS:          0  dACCESS:   27358916  dHIT:   22617895  dMISS:    4741021  itACCESS:          0  itHIT:          0  itMISS:          0  dtACCESS:          0  dtHIT:          0  dtMISS:          0
cpu0_DTLB LOAD         ACCESS:   27358916  HIT:   22617895  MISS:    4741021  iACCESS:          0  iHIT:          0  iMISS:          0  dACCESS:   27358916  dHIT:   22617895  dMISS:    4741021  itACCESS:          0  itHIT:          0  itMISS:          0  dtACCESS:          0  dtHIT:          0  dtMISS:          0
cpu0_DTLB RFO          ACCESS:          0  HIT:          0  MISS:          0  iACCESS:          0  iHIT:          0  iMISS:          0  dACCESS:          0  dHIT:          0  dMISS:          0  itACCESS:          0  itHIT:          0  itMISS:          0  dtACCESS:          0  dtHIT:          0  dtMISS:          0
cpu0_DTLB PREFETCH     ACCESS:          0  HIT:          0  MISS:          0  iACCESS:          0  iHIT:          0  iMISS:          0  dACCESS:          0  dHIT:          0  dMISS:          0  itACCESS:          0  itHIT:          0  itMISS:          0  dtACCESS:          0  dtHIT:          0  dtMISS:          0
cpu0_DTLB WRITE        ACCESS:          0  HIT:          0  MISS:          0  iACCESS:          0  iHIT:          0  iMISS:          0  dACCESS:          0  dHIT:          0  dMISS:          0  itACCESS:          0  itHIT:          0  itMISS:          0  dtACCESS:          0  dtHIT:          0  dtMISS:          0
cpu0_DTLB TRANSLATION  ACCESS:          0  HIT:          0  MISS:          0  iACCESS:          0  iHIT:          0  iMISS:          0  dACCESS:          0  dHIT:          0  dMISS:          0  itACCESS:          0  itHIT:          0  itMISS:          0  dtACCESS:          0  dtHIT:          0  dtMISS:          0
cpu0_DTLB PREFETCH  REQUESTED:          0  ISSUED:          0  CROSSED:          0  USEFUL:          0  USELESS:          0
cpu0_DTLB AVERAGE iMISS LATENCY: 0 cycles
cpu0_DTLB AVERAGE dMISS LATENCY: 6.74375 cycles
cpu0_DTLB AVERAGE itMISS LATENCY: 0 cycles
cpu0_DTLB AVERAGE dtMISS LATENCY: 0 cycles
cpu0_DTLB PAGE CROSSINGS (TLB HIT):         0 
cpu0_DTLB PAGE CROSSINGS (TLB MISS):         0 
cpu0_DTLB AVERAGE MISS LATENCY: 6.74375 cycles
cpu0_STLB TOTAL       ACCESS:    2952750  HIT:    2832868  MISS:     119882  iACCESS:      20584  iHIT:      14497  iMISS:       6087  dACCESS:    2932166  dHIT:    2818371  dMISS:     113795  itACCESS:          0  itHIT:          0  itMISS:          0  dtACCESS:          0  dtHIT:          0  dtMISS:          0
cpu0_STLB LOAD         ACCESS:    2952750  HIT:    2832868  MISS:     119882  iACCESS:      20584  iHIT:      14497  iMISS:       6087  dACCESS:    2932166  dHIT:    2818371  dMISS:     113795  itACCESS:          0  itHIT:          0  itMISS:          0  dtACCESS:          0  dtHIT:          0  dtMISS:          0
cpu0_STLB RFO          ACCESS:          0  HIT:          0  MISS:          0  iACCESS:          0  iHIT:          0  iMISS:          0  dACCESS:          0  dHIT:          0  dMISS:          0  itACCESS:          0  itHIT:          0  itMISS:          0  dtACCESS:          0  dtHIT:          0  dtMISS:          0
cpu0_STLB PREFETCH     ACCESS:          0  HIT:          0  MISS:          0  iACCESS:          0  iHIT:          0  iMISS:          0  dACCESS:          0  dHIT:          0  dMISS:          0  itACCESS:          0  itHIT:          0  itMISS:          0  dtACCESS:          0  dtHIT:          0  dtMISS:          0
cpu0_STLB WRITE        ACCESS:          0  HIT:          0  MISS:          0  iACCESS:          0  iHIT:          0  iMISS:          0  dACCESS:          0  dHIT:          0  dMISS:          0  itACCESS:          0  itHIT:          0  itMISS:          0  dtACCESS:          0  dtHIT:          0  dtMISS:          0
cpu0_STLB TRANSLATION  ACCESS:          0  HIT:          0  MISS:          0  iACCESS:          0  iHIT:          0  iMISS:          0  dACCESS:          0  dHIT:          0  dMISS:          0  itACCESS:          0  itHIT:          0  itMISS:          0  dtACCESS:          0  dtHIT:          0  dtMISS:          0
cpu0_STLB PREFETCH  REQUESTED:          0  ISSUED:          0  CROSSED:          0  USEFUL:          0  USELESS:          0
cpu0_STLB AVERAGE iMISS LATENCY: 5.52812 cycles
cpu0_STLB AVERAGE dMISS LATENCY: 67.8103 cycles
cpu0_STLB AVERAGE itMISS LATENCY: 0 cycles
cpu0_STLB AVERAGE dtMISS LATENCY: 0 cycles
cpu0_STLB PAGE CROSSINGS (TLB HIT):         0 
cpu0_STLB PAGE CROSSINGS (TLB MISS):         0 
cpu0_STLB AVERAGE MISS LATENCY: 73.3384 cycles
cpu0_L1D TOTAL       ACCESS:  161851688  HIT:   31977338  MISS:  129874350  iACCESS:          0  iHIT:          0  iMISS:          0  dACCESS:  161308720  dHIT:   31947736  dMISS:  129360984  itACCESS:       6597  itHIT:       1693  itMISS:       4904  dtACCESS:     536371  dtHIT:      27909  dtMISS:     508462
cpu0_L1D LOAD         ACCESS:   70621028  HIT:   16688780  MISS:   53932248  iACCESS:          0  iHIT:          0  iMISS:          0  dACCESS:   70621028  dHIT:   16688780  dMISS:   53932248  itACCESS:          0  itHIT:          0  itMISS:          0  dtACCESS:          0  dtHIT:          0  dtMISS:          0
cpu0_L1D RFO          ACCESS:          0  HIT:          0  MISS:          0  iACCESS:          0  iHIT:          0  iMISS:          0  dACCESS:          0  dHIT:          0  dMISS:          0  itACCESS:          0  itHIT:          0  itMISS:          0  dtACCESS:          0  dtHIT:          0  dtMISS:          0
cpu0_L1D PREFETCH     ACCESS:   84061991  HIT:    9848453  MISS:   74213538  iACCESS:          0  iHIT:          0  iMISS:          0  dACCESS:   84061991  dHIT:    9848453  dMISS:   74213538  itACCESS:          0  itHIT:          0  itMISS:          0  dtACCESS:          0  dtHIT:          0  dtMISS:          0
cpu0_L1D WRITE        ACCESS:    6625701  HIT:    5410503  MISS:    1215198  iACCESS:          0  iHIT:          0  iMISS:          0  dACCESS:    6625701  dHIT:    5410503  dMISS:    1215198  itACCESS:          0  itHIT:          0  itMISS:          0  dtACCESS:          0  dtHIT:          0  dtMISS:          0
cpu0_L1D TRANSLATION  ACCESS:     542968  HIT:      29602  MISS:     513366  iACCESS:          0  iHIT:          0  iMISS:          0  dACCESS:          0  dHIT:          0  dMISS:          0  itACCESS:       6597  itHIT:       1693  itMISS:       4904  dtACCESS:     536371  dtHIT:      27909  dtMISS:     508462
cpu0_L1D PREFETCH  REQUESTED:   70621028  ISSUED:   29399322  CROSSED:          0  USEFUL:     167350  USELESS:    1301251
cpu0_L1D AVERAGE iMISS LATENCY: 0 cycles
cpu0_L1D AVERAGE dMISS LATENCY: 17.3772 cycles
cpu0_L1D AVERAGE itMISS LATENCY: 0.00460516 cycles
cpu0_L1D AVERAGE dtMISS LATENCY: 0.03714 cycles
cpu0_L1D PAGE CROSSINGS (TLB HIT):         0 
cpu0_L1D PAGE CROSSINGS (TLB MISS):         0 
cpu0_L1D AVERAGE MISS LATENCY: 17.419 cycles
cpu0_L2C TOTAL       ACCESS:    6221924  HIT:    1920341  MISS:    4301583  iACCESS:     172598  iHIT:      87715  iMISS:      84883  dACCESS:    5975328  dHIT:    1792903  dMISS:    4182425  itACCESS:       4826  itHIT:       1610  itMISS:       3216  dtACCESS:      69172  dtHIT:      38113  dtMISS:      31059
cpu0_L2C LOAD         ACCESS:    3854819  HIT:    1374412  MISS:    2480407  iACCESS:      43296  iHIT:      21485  iMISS:      21811  dACCESS:    3811523  dHIT:    1352927  dMISS:    2458596  itACCESS:          0  itHIT:          0  itMISS:          0  dtACCESS:          0  dtHIT:          0  dtMISS:          0
cpu0_L2C RFO          ACCESS:     114276  HIT:      29137  MISS:      85139  iACCESS:          0  iHIT:          0  iMISS:          0  dACCESS:     114276  dHIT:      29137  dMISS:      85139  itACCESS:          0  itHIT:          0  itMISS:          0  dtACCESS:          0  dtHIT:          0  dtMISS:          0
cpu0_L2C PREFETCH     ACCESS:    2071216  HIT:     403656  MISS:    1667560  iACCESS:     129302  iHIT:      66230  iMISS:      63072  dACCESS:    1941914  dHIT:     337426  dMISS:    1604488  itACCESS:          0  itHIT:          0  itMISS:          0  dtACCESS:          0  dtHIT:          0  dtMISS:          0
cpu0_L2C WRITE        ACCESS:     107615  HIT:      73413  MISS:      34202  iACCESS:          0  iHIT:          0  iMISS:          0  dACCESS:     107615  dHIT:      73413  dMISS:      34202  itACCESS:          0  itHIT:          0  itMISS:          0  dtACCESS:          0  dtHIT:          0  dtMISS:          0
cpu0_L2C TRANSLATION  ACCESS:      73998  HIT:      39723  MISS:      34275  iACCESS:          0  iHIT:          0  iMISS:          0  dACCESS:          0  dHIT:          0  dMISS:          0  itACCESS:       4826  itHIT:       1610  itMISS:       3216  dtACCESS:      69172  dtHIT:      38113  dtMISS:      31059
cpu0_L2C PREFETCH  REQUESTED:     493555  ISSUED:     492545  CROSSED:          0  USEFUL:      65756  USELESS:     222308
cpu0_L2C AVERAGE iMISS LATENCY: 1.77576 cycles
cpu0_L2C AVERAGE dMISS LATENCY: 523.058 cycles
cpu0_L2C AVERAGE itMISS LATENCY: 0.128149 cycles
cpu0_L2C AVERAGE dtMISS LATENCY: 0.967742 cycles
cpu0_L2C PAGE CROSSINGS (TLB HIT):         0 
cpu0_L2C PAGE CROSSINGS (TLB MISS):         0 
cpu0_L2C AVERAGE MISS LATENCY: 525.929 cycles
LLC TOTAL       ACCESS:    4129854  HIT:    1898811  MISS:    2231043  iACCESS:      82498  iHIT:      50541  iMISS:      31957  dACCESS:    4013081  dHIT:    1829146  dMISS:    2183935  itACCESS:       3216  itHIT:        790  itMISS:       2426  dtACCESS:      31059  dtHIT:      18334  dtMISS:      12725
LLC LOAD         ACCESS:    2477731  HIT:    1337011  MISS:    1140720  iACCESS:      21764  iHIT:      14683  iMISS:       7081  dACCESS:    2455967  dHIT:    1322328  dMISS:    1133639  itACCESS:          0  itHIT:          0  itMISS:          0  dtACCESS:          0  dtHIT:          0  dtMISS:          0
LLC RFO          ACCESS:      85128  HIT:       5040  MISS:      80088  iACCESS:          0  iHIT:          0  iMISS:          0  dACCESS:      85128  dHIT:       5040  dMISS:      80088  itACCESS:          0  itHIT:          0  itMISS:          0  dtACCESS:          0  dtHIT:          0  dtMISS:          0
LLC PREFETCH     ACCESS:    1440826  HIT:     452364  MISS:     988462  iACCESS:      60734  iHIT:      35858  iMISS:      24876  dACCESS:    1380092  dHIT:     416506  dMISS:     963586  itACCESS:          0  itHIT:          0  itMISS:          0  dtACCESS:          0  dtHIT:          0  dtMISS:          0
LLC WRITE        ACCESS:      91894  HIT:      85272  MISS:       6622  iACCESS:          0  iHIT:          0  iMISS:          0  dACCESS:      91894  dHIT:      85272  dMISS:       6622  itACCESS:          0  itHIT:          0  itMISS:          0  dtACCESS:          0  dtHIT:          0  dtMISS:          0
LLC TRANSLATION  ACCESS:      34275  HIT:      19124  MISS:      15151  iACCESS:          0  iHIT:          0  iMISS:          0  dACCESS:          0  dHIT:          0  dMISS:          0  itACCESS:       3216  itHIT:        790  itMISS:       2426  dtACCESS:      31059  dtHIT:      18334  dtMISS:      12725
LLC PREFETCH  REQUESTED:          0  ISSUED:          0  CROSSED:          0  USEFUL:          0  USELESS:          0
LLC AVERAGE iMISS LATENCY: 2.70281 cycles
LLC AVERAGE dMISS LATENCY: 974.599 cycles
LLC AVERAGE itMISS LATENCY: 0.21873 cycles
LLC AVERAGE dtMISS LATENCY: 1.59545 cycles
LLC PAGE CROSSINGS (TLB HIT):         0 
LLC PAGE CROSSINGS (TLB MISS):         0 
LLC AVERAGE MISS LATENCY: 979.116 cycles

PageTableWalker TOTAL       ACCESS:      30555  
PageTableWalker AVERAGE LATENCY: 3.29541 cycles
PageTableWalker TOTAL LATENCY: 100691 cycles

DRAM Statistics
Channel 0
 RQ ROW_BUFFER_HIT:     391864
  ROW_BUFFER_MISS:    1829710
 AVG DBUS CONGESTED CYCLE:    3.88219
 WQ ROW_BUFFER_HIT:      11552
  ROW_BUFFER_MISS:      70614  FULL:          0

