last_page:0x200000000000000
VMEM_RES_CAP:0x100000
PAGE_SIZE:4096
LOG2_PAGE_SIZE:12
LOG2_PAGE_TABLE_SIZE:9
page_table_levels:5
WARNING: physical memory size is smaller than virtual memory size
FDiP enabled with aggresivity 16

*** ChampSim Multicore Out-of-Order Simulator ***

Warmup Instructions: 50000000
Simulation Instructions: 100000000
Number of CPUs: 1
Small page size: 4096
Large page size: 2097152

CPU 0 Bimodal branch predictor
Basic BTB sets: 1024 ways: 8 indirect buffer size: 4096 RAS size: 64
Instruction page size distrubution: 0
Loading instruction page size distribution from /home/bsc/bsc018186/scratch/itp_asplos25_AE/dump/srv609_ap.pdst
Data page size distrubution: 0
Loading data page size distribution from /home/bsc/bsc018186/scratch/itp_asplos25_AE/dump/srv609_ap.pdst
cpu0_L2C IP-based stride prefetcher
cpu0_L1D next line prefetcher
cpu0_STLB using iTP with max lru@8
cpu0_STLB using iTP with instr@0 and data@2
Init sat counter with 3 bits (max:50).
cpu0_L1I next line prefetcher
Off-chip DRAM Size: 4 GiB Channels: 1 Width: 64-bit Data Rate: 3200 MT/s
Heartbeat CPU 0 instructions: 10000003 cycles: 2500238 heartbeat IPC: 3.99963 cumulative IPC: 3.99963 (Simulation time: 0 hr 0 min 37 sec) 
Heartbeat CPU 0 instructions: 20000000 cycles: 5000296 heartbeat IPC: 3.99991 cumulative IPC: 3.99977 (Simulation time: 0 hr 1 min 16 sec) 
Heartbeat CPU 0 instructions: 30000002 cycles: 7500423 heartbeat IPC: 3.9998 cumulative IPC: 3.99978 (Simulation time: 0 hr 1 min 56 sec) 
Heartbeat CPU 0 instructions: 40000003 cycles: 10002163 heartbeat IPC: 3.99722 cumulative IPC: 3.99914 (Simulation time: 0 hr 2 min 37 sec) 
Heartbeat CPU 0 instructions: 50000000 cycles: 12502163 heartbeat IPC: 4 cumulative IPC: 3.99931 (Simulation time: 0 hr 3 min 17 sec) 
Warmup finished CPU 0 instructions: 50000000 cycles: 12502164 cumulative IPC: 3.99931 (Simulation time: 0 hr 3 min 17 sec) 

Warmup complete CPU 0 instructions: 50000000 cycles: 12502164 (Simulation time: 0 hr 3 min 17 sec) 

Heartbeat CPU 0 instructions: 60000000 cycles: 26505632 heartbeat IPC: 0.714109 cumulative IPC: 0.714109 (Simulation time: 0 hr 4 min 21 sec) 
Heartbeat CPU 0 instructions: 70000002 cycles: 40295457 heartbeat IPC: 0.725173 cumulative IPC: 0.719599 (Simulation time: 0 hr 5 min 24 sec) 
Heartbeat CPU 0 instructions: 80000001 cycles: 54085694 heartbeat IPC: 0.725151 cumulative IPC: 0.72144 (Simulation time: 0 hr 6 min 27 sec) 
Heartbeat CPU 0 instructions: 90000001 cycles: 69040565 heartbeat IPC: 0.668679 cumulative IPC: 0.707484 (Simulation time: 0 hr 7 min 32 sec) 
Heartbeat CPU 0 instructions: 100000004 cycles: 83145508 heartbeat IPC: 0.708972 cumulative IPC: 0.707781 (Simulation time: 0 hr 8 min 36 sec) 
*** Reached end of trace: /gpfs/projects/bsc18/MN4/bsc18/romol/ChampSim/traces/qualcomm_srv/srv609_ap.champsimtrace.xz
Heartbeat CPU 0 instructions: 110000002 cycles: 97774862 heartbeat IPC: 0.683558 cumulative IPC: 0.703625 (Simulation time: 0 hr 9 min 40 sec) 
Heartbeat CPU 0 instructions: 120000002 cycles: 111786168 heartbeat IPC: 0.71371 cumulative IPC: 0.705049 (Simulation time: 0 hr 10 min 44 sec) 
Heartbeat CPU 0 instructions: 130000000 cycles: 126466485 heartbeat IPC: 0.681185 cumulative IPC: 0.701975 (Simulation time: 0 hr 11 min 50 sec) 
Heartbeat CPU 0 instructions: 140000001 cycles: 141396539 heartbeat IPC: 0.669791 cumulative IPC: 0.698247 (Simulation time: 0 hr 12 min 55 sec) 
Heartbeat CPU 0 instructions: 150000000 cycles: 154760872 heartbeat IPC: 0.748261 cumulative IPC: 0.702945 (Simulation time: 0 hr 13 min 58 sec) 
Simulation finished CPU 0 instructions: 100000000 cycles: 142258709 cumulative IPC: 0.702945 (Simulation time: 0 hr 13 min 58 sec) 

Simulation complete CPU 0 instructions: 100000000 cycles: 142258709 (Simulation time: 0 hr 13 min 58 sec) 


ChampSim completed all CPUs

Saving instructions large page distribution to /home/bsc/bsc018186/scratch/itp_asplos25_AE/dump/srv609_ap.pdst...
Saving data large page distribution to /home/bsc/bsc018186/scratch/itp_asplos25_AE/dump/srv609_ap.pdst...
=== Simulation ===
CPU 0 runs /gpfs/projects/bsc18/MN4/bsc18/romol/ChampSim/traces/qualcomm_srv/srv609_ap.champsimtrace.xz

Region of Interest Statistics

CPU 0 cumulative IPC: 0.702945 instructions: 100000000 cycles: 142258709
CPU 0 Branch Prediction Accuracy: 82.7981% MPKI: 30.7994 Average ROB Occupancy at Mispredict: 12.1946
Branch type MPKI
BRANCH_DIRECT_JUMP: 1.05947
BRANCH_INDIRECT: 15.699
BRANCH_CONDITIONAL: 10.2378
BRANCH_DIRECT_CALL: 1.91022
BRANCH_INDIRECT_CALL: 0.520601
BRANCH_RETURN: 1.37239

Instructions large pages: 0
Instructions small pages: 1039
Large page distribution for instructions: 0%

Data large pages: 0
Data small pages: 9598
Large page distribution for data: 0%

cpu0_L1I TOTAL       ACCESS:   35504719  HIT:   27081928  MISS:    8422791  iACCESS:   35504719  iHIT:   27081928  iMISS:    8422791  dACCESS:          0  dHIT:          0  dMISS:          0  itACCESS:          0  itHIT:          0  itMISS:          0  dtACCESS:          0  dtHIT:          0  dtMISS:          0
cpu0_L1I LOAD         ACCESS:   10382793  HIT:    8030968  MISS:    2351825  iACCESS:   10382793  iHIT:    8030968  iMISS:    2351825  dACCESS:          0  dHIT:          0  dMISS:          0  itACCESS:          0  itHIT:          0  itMISS:          0  dtACCESS:          0  dtHIT:          0  dtMISS:          0
cpu0_L1I RFO          ACCESS:          0  HIT:          0  MISS:          0  iACCESS:          0  iHIT:          0  iMISS:          0  dACCESS:          0  dHIT:          0  dMISS:          0  itACCESS:          0  itHIT:          0  itMISS:          0  dtACCESS:          0  dtHIT:          0  dtMISS:          0
cpu0_L1I PREFETCH     ACCESS:   25121926  HIT:   19050960  MISS:    6070966  iACCESS:   25121926  iHIT:   19050960  iMISS:    6070966  dACCESS:          0  dHIT:          0  dMISS:          0  itACCESS:          0  itHIT:          0  itMISS:          0  dtACCESS:          0  dtHIT:          0  dtMISS:          0
cpu0_L1I WRITE        ACCESS:          0  HIT:          0  MISS:          0  iACCESS:          0  iHIT:          0  iMISS:          0  dACCESS:          0  dHIT:          0  dMISS:          0  itACCESS:          0  itHIT:          0  itMISS:          0  dtACCESS:          0  dtHIT:          0  dtMISS:          0
cpu0_L1I TRANSLATION  ACCESS:          0  HIT:          0  MISS:          0  iACCESS:          0  iHIT:          0  iMISS:          0  dACCESS:          0  dHIT:          0  dMISS:          0  itACCESS:          0  itHIT:          0  itMISS:          0  dtACCESS:          0  dtHIT:          0  dtMISS:          0
cpu0_L1I PREFETCH  REQUESTED:   27418106  ISSUED:   27414816  CROSSED:          0  USEFUL:    1947588  USELESS:     630704
cpu0_L1I AVERAGE iMISS LATENCY: 13.3495 cycles
cpu0_L1I AVERAGE dMISS LATENCY: 0 cycles
cpu0_L1I AVERAGE itMISS LATENCY: 0 cycles
cpu0_L1I AVERAGE dtMISS LATENCY: 0 cycles
cpu0_L1I PAGE CROSSINGS (TLB HIT):         0 
cpu0_L1I PAGE CROSSINGS (TLB MISS):         0 
cpu0_L1I AVERAGE MISS LATENCY: 13.3495 cycles
cpu0_ITLB TOTAL       ACCESS:   29396316  HIT:   27467942  MISS:    1928374  iACCESS:   29396316  iHIT:   27467942  iMISS:    1928374  dACCESS:          0  dHIT:          0  dMISS:          0  itACCESS:          0  itHIT:          0  itMISS:          0  dtACCESS:          0  dtHIT:          0  dtMISS:          0
cpu0_ITLB LOAD         ACCESS:   29396316  HIT:   27467942  MISS:    1928374  iACCESS:   29396316  iHIT:   27467942  iMISS:    1928374  dACCESS:          0  dHIT:          0  dMISS:          0  itACCESS:          0  itHIT:          0  itMISS:          0  dtACCESS:          0  dtHIT:          0  dtMISS:          0
cpu0_ITLB RFO          ACCESS:          0  HIT:          0  MISS:          0  iACCESS:          0  iHIT:          0  iMISS:          0  dACCESS:          0  dHIT:          0  dMISS:          0  itACCESS:          0  itHIT:          0  itMISS:          0  dtACCESS:          0  dtHIT:          0  dtMISS:          0
cpu0_ITLB PREFETCH     ACCESS:          0  HIT:          0  MISS:          0  iACCESS:          0  iHIT:          0  iMISS:          0  dACCESS:          0  dHIT:          0  dMISS:          0  itACCESS:          0  itHIT:          0  itMISS:          0  dtACCESS:          0  dtHIT:          0  dtMISS:          0
cpu0_ITLB WRITE        ACCESS:          0  HIT:          0  MISS:          0  iACCESS:          0  iHIT:          0  iMISS:          0  dACCESS:          0  dHIT:          0  dMISS:          0  itACCESS:          0  itHIT:          0  itMISS:          0  dtACCESS:          0  dtHIT:          0  dtMISS:          0
cpu0_ITLB TRANSLATION  ACCESS:          0  HIT:          0  MISS:          0  iACCESS:          0  iHIT:          0  iMISS:          0  dACCESS:          0  dHIT:          0  dMISS:          0  itACCESS:          0  itHIT:          0  itMISS:          0  dtACCESS:          0  dtHIT:          0  dtMISS:          0
cpu0_ITLB PREFETCH  REQUESTED:          0  ISSUED:          0  CROSSED:          0  USEFUL:     317912  USELESS:      63775
cpu0_ITLB AVERAGE iMISS LATENCY: 2.047 cycles
cpu0_ITLB AVERAGE dMISS LATENCY: 0 cycles
cpu0_ITLB AVERAGE itMISS LATENCY: 0 cycles
cpu0_ITLB AVERAGE dtMISS LATENCY: 0 cycles
cpu0_ITLB PAGE CROSSINGS (TLB HIT):         0 
cpu0_ITLB PAGE CROSSINGS (TLB MISS):         0 
cpu0_ITLB AVERAGE MISS LATENCY: 2.047 cycles
cpu0_DTLB TOTAL       ACCESS:   27765208  HIT:   25732081  MISS:    2033127  iACCESS:          0  iHIT:          0  iMISS:          0  dACCESS:   27765208  dHIT:   25732081  dMISS:    2033127  itACCESS:          0  itHIT:          0  itMISS:          0  dtACCESS:          0  dtHIT:          0  dtMISS:          0
cpu0_DTLB LOAD         ACCESS:   27765208  HIT:   25732081  MISS:    2033127  iACCESS:          0  iHIT:          0  iMISS:          0  dACCESS:   27765208  dHIT:   25732081  dMISS:    2033127  itACCESS:          0  itHIT:          0  itMISS:          0  dtACCESS:          0  dtHIT:          0  dtMISS:          0
cpu0_DTLB RFO          ACCESS:          0  HIT:          0  MISS:          0  iACCESS:          0  iHIT:          0  iMISS:          0  dACCESS:          0  dHIT:          0  dMISS:          0  itACCESS:          0  itHIT:          0  itMISS:          0  dtACCESS:          0  dtHIT:          0  dtMISS:          0
cpu0_DTLB PREFETCH     ACCESS:          0  HIT:          0  MISS:          0  iACCESS:          0  iHIT:          0  iMISS:          0  dACCESS:          0  dHIT:          0  dMISS:          0  itACCESS:          0  itHIT:          0  itMISS:          0  dtACCESS:          0  dtHIT:          0  dtMISS:          0
cpu0_DTLB WRITE        ACCESS:          0  HIT:          0  MISS:          0  iACCESS:          0  iHIT:          0  iMISS:          0  dACCESS:          0  dHIT:          0  dMISS:          0  itACCESS:          0  itHIT:          0  itMISS:          0  dtACCESS:          0  dtHIT:          0  dtMISS:          0
cpu0_DTLB TRANSLATION  ACCESS:          0  HIT:          0  MISS:          0  iACCESS:          0  iHIT:          0  iMISS:          0  dACCESS:          0  dHIT:          0  dMISS:          0  itACCESS:          0  itHIT:          0  itMISS:          0  dtACCESS:          0  dtHIT:          0  dtMISS:          0
cpu0_DTLB PREFETCH  REQUESTED:          0  ISSUED:          0  CROSSED:          0  USEFUL:          0  USELESS:          0
cpu0_DTLB AVERAGE iMISS LATENCY: 0 cycles
cpu0_DTLB AVERAGE dMISS LATENCY: 11.4173 cycles
cpu0_DTLB AVERAGE itMISS LATENCY: 0 cycles
cpu0_DTLB AVERAGE dtMISS LATENCY: 0 cycles
cpu0_DTLB PAGE CROSSINGS (TLB HIT):         0 
cpu0_DTLB PAGE CROSSINGS (TLB MISS):         0 
cpu0_DTLB AVERAGE MISS LATENCY: 11.4173 cycles
cpu0_STLB TOTAL       ACCESS:    1634862  HIT:    1487420  MISS:     147442  iACCESS:     381691  iHIT:     372178  iMISS:       9513  dACCESS:    1253171  dHIT:    1115242  dMISS:     137929  itACCESS:          0  itHIT:          0  itMISS:          0  dtACCESS:          0  dtHIT:          0  dtMISS:          0
cpu0_STLB LOAD         ACCESS:    1634862  HIT:    1487420  MISS:     147442  iACCESS:     381691  iHIT:     372178  iMISS:       9513  dACCESS:    1253171  dHIT:    1115242  dMISS:     137929  itACCESS:          0  itHIT:          0  itMISS:          0  dtACCESS:          0  dtHIT:          0  dtMISS:          0
cpu0_STLB RFO          ACCESS:          0  HIT:          0  MISS:          0  iACCESS:          0  iHIT:          0  iMISS:          0  dACCESS:          0  dHIT:          0  dMISS:          0  itACCESS:          0  itHIT:          0  itMISS:          0  dtACCESS:          0  dtHIT:          0  dtMISS:          0
cpu0_STLB PREFETCH     ACCESS:          0  HIT:          0  MISS:          0  iACCESS:          0  iHIT:          0  iMISS:          0  dACCESS:          0  dHIT:          0  dMISS:          0  itACCESS:          0  itHIT:          0  itMISS:          0  dtACCESS:          0  dtHIT:          0  dtMISS:          0
cpu0_STLB WRITE        ACCESS:          0  HIT:          0  MISS:          0  iACCESS:          0  iHIT:          0  iMISS:          0  dACCESS:          0  dHIT:          0  dMISS:          0  itACCESS:          0  itHIT:          0  itMISS:          0  dtACCESS:          0  dtHIT:          0  dtMISS:          0
cpu0_STLB TRANSLATION  ACCESS:          0  HIT:          0  MISS:          0  iACCESS:          0  iHIT:          0  iMISS:          0  dACCESS:          0  dHIT:          0  dMISS:          0  itACCESS:          0  itHIT:          0  itMISS:          0  dtACCESS:          0  dtHIT:          0  dtMISS:          0
cpu0_STLB PREFETCH  REQUESTED:          0  ISSUED:          0  CROSSED:          0  USEFUL:          0  USELESS:          0
cpu0_STLB AVERAGE iMISS LATENCY: 6.70438 cycles
cpu0_STLB AVERAGE dMISS LATENCY: 89.5909 cycles
cpu0_STLB AVERAGE itMISS LATENCY: 0 cycles
cpu0_STLB AVERAGE dtMISS LATENCY: 0 cycles
cpu0_STLB PAGE CROSSINGS (TLB HIT):         0 
cpu0_STLB PAGE CROSSINGS (TLB MISS):         0 
cpu0_STLB AVERAGE MISS LATENCY: 96.2953 cycles
cpu0_L1D TOTAL       ACCESS:   41586409  HIT:   38057541  MISS:    3528868  iACCESS:          0  iHIT:          0  iMISS:          0  dACCESS:   41369184  dHIT:   38043678  dMISS:    3325506  itACCESS:      11317  itHIT:       1062  itMISS:      10255  dtACCESS:     205908  dtHIT:      12801  dtMISS:     193107
cpu0_L1D LOAD         ACCESS:   18966628  HIT:   17444702  MISS:    1521926  iACCESS:          0  iHIT:          0  iMISS:          0  dACCESS:   18966628  dHIT:   17444702  dMISS:    1521926  itACCESS:          0  itHIT:          0  itMISS:          0  dtACCESS:          0  dtHIT:          0  dtMISS:          0
cpu0_L1D RFO          ACCESS:          0  HIT:          0  MISS:          0  iACCESS:          0  iHIT:          0  iMISS:          0  dACCESS:          0  dHIT:          0  dMISS:          0  itACCESS:          0  itHIT:          0  itMISS:          0  dtACCESS:          0  dtHIT:          0  dtMISS:          0
cpu0_L1D PREFETCH     ACCESS:   12209831  HIT:   10830602  MISS:    1379229  iACCESS:          0  iHIT:          0  iMISS:          0  dACCESS:   12209831  dHIT:   10830602  dMISS:    1379229  itACCESS:          0  itHIT:          0  itMISS:          0  dtACCESS:          0  dtHIT:          0  dtMISS:          0
cpu0_L1D WRITE        ACCESS:   10192725  HIT:    9768374  MISS:     424351  iACCESS:          0  iHIT:          0  iMISS:          0  dACCESS:   10192725  dHIT:    9768374  dMISS:     424351  itACCESS:          0  itHIT:          0  itMISS:          0  dtACCESS:          0  dtHIT:          0  dtMISS:          0
cpu0_L1D TRANSLATION  ACCESS:     217225  HIT:      13863  MISS:     203362  iACCESS:          0  iHIT:          0  iMISS:          0  dACCESS:          0  dHIT:          0  dMISS:          0  itACCESS:      11317  itHIT:       1062  itMISS:      10255  dtACCESS:     205908  dtHIT:      12801  dtMISS:     193107
cpu0_L1D PREFETCH  REQUESTED:   18966628  ISSUED:   17014211  CROSSED:          0  USEFUL:     305876  USELESS:     704255
cpu0_L1D AVERAGE iMISS LATENCY: 0 cycles
cpu0_L1D AVERAGE dMISS LATENCY: 32.9092 cycles
cpu0_L1D AVERAGE itMISS LATENCY: 0.251242 cycles
cpu0_L1D AVERAGE dtMISS LATENCY: 3.00555 cycles
cpu0_L1D PAGE CROSSINGS (TLB HIT):         0 
cpu0_L1D PAGE CROSSINGS (TLB MISS):         0 
cpu0_L1D AVERAGE MISS LATENCY: 36.166 cycles
cpu0_L2C TOTAL       ACCESS:    7025168  HIT:    1684988  MISS:    5340180  iACCESS:    3315611  iHIT:     863991  iMISS:    2451620  dACCESS:    3516255  dHIT:     719689  dMISS:    2796566  itACCESS:      10255  itHIT:       4666  itMISS:       5589  dtACCESS:     183047  dtHIT:      96642  dtMISS:      86405
cpu0_L2C LOAD         ACCESS:    1708301  HIT:     290425  MISS:    1417876  iACCESS:     775521  iHIT:     138774  iMISS:     636747  dACCESS:     932780  dHIT:     151651  dMISS:     781129  itACCESS:          0  itHIT:          0  itMISS:          0  dtACCESS:          0  dtHIT:          0  dtMISS:          0
cpu0_L2C RFO          ACCESS:     159587  HIT:      54662  MISS:     104925  iACCESS:          0  iHIT:          0  iMISS:          0  dACCESS:     159587  dHIT:      54662  dMISS:     104925  itACCESS:          0  itHIT:          0  itMISS:          0  dtACCESS:          0  dtHIT:          0  dtMISS:          0
cpu0_L2C PREFETCH     ACCESS:    4681699  HIT:    1099073  MISS:    3582626  iACCESS:    2540090  iHIT:     725217  iMISS:    1814873  dACCESS:    2141609  dHIT:     373856  dMISS:    1767753  itACCESS:          0  itHIT:          0  itMISS:          0  dtACCESS:          0  dtHIT:          0  dtMISS:          0
cpu0_L2C WRITE        ACCESS:     282279  HIT:     139520  MISS:     142759  iACCESS:          0  iHIT:          0  iMISS:          0  dACCESS:     282279  dHIT:     139520  dMISS:     142759  itACCESS:          0  itHIT:          0  itMISS:          0  dtACCESS:          0  dtHIT:          0  dtMISS:          0
cpu0_L2C TRANSLATION  ACCESS:     193302  HIT:     101308  MISS:      91994  iACCESS:          0  iHIT:          0  iMISS:          0  dACCESS:          0  dHIT:          0  dMISS:          0  itACCESS:      10255  itHIT:       4666  itMISS:       5589  dtACCESS:     183047  dtHIT:      96642  dtMISS:      86405
cpu0_L2C PREFETCH  REQUESTED:    1391909  ISSUED:    1391909  CROSSED:          0  USEFUL:     412909  USELESS:     378453
cpu0_L2C AVERAGE iMISS LATENCY: 15.279 cycles
cpu0_L2C AVERAGE dMISS LATENCY: 25.43 cycles
cpu0_L2C AVERAGE itMISS LATENCY: 0.14764 cycles
cpu0_L2C AVERAGE dtMISS LATENCY: 1.65965 cycles
cpu0_L2C PAGE CROSSINGS (TLB HIT):         0 
cpu0_L2C PAGE CROSSINGS (TLB MISS):         0 
cpu0_L2C AVERAGE MISS LATENCY: 42.5163 cycles
LLC TOTAL       ACCESS:    5217447  HIT:    4397131  MISS:     820316  iACCESS:    2396033  iHIT:    2156300  iMISS:     239733  dACCESS:    2729420  dHIT:    2193397  dMISS:     536023  itACCESS:       5589  itHIT:       1776  itMISS:       3813  dtACCESS:      86405  dtHIT:      45658  dtMISS:      40747
LLC LOAD         ACCESS:    1415488  HIT:    1236039  MISS:     179449  iACCESS:     635406  iHIT:     585996  iMISS:      49410  dACCESS:     780082  dHIT:     650043  dMISS:     130039  itACCESS:          0  itHIT:          0  itMISS:          0  dtACCESS:          0  dtHIT:          0  dtMISS:          0
LLC RFO          ACCESS:     104920  HIT:      71535  MISS:      33385  iACCESS:          0  iHIT:          0  iMISS:          0  dACCESS:     104920  dHIT:      71535  dMISS:      33385  itACCESS:          0  itHIT:          0  itMISS:          0  dtACCESS:          0  dtHIT:          0  dtMISS:          0
LLC PREFETCH     ACCESS:    3470577  HIT:    2917031  MISS:     553546  iACCESS:    1760627  iHIT:    1570304  iMISS:     190323  dACCESS:    1709950  dHIT:    1346727  dMISS:     363223  itACCESS:          0  itHIT:          0  itMISS:          0  dtACCESS:          0  dtHIT:          0  dtMISS:          0
LLC WRITE        ACCESS:     134468  HIT:     125092  MISS:       9376  iACCESS:          0  iHIT:          0  iMISS:          0  dACCESS:     134468  dHIT:     125092  dMISS:       9376  itACCESS:          0  itHIT:          0  itMISS:          0  dtACCESS:          0  dtHIT:          0  dtMISS:          0
LLC TRANSLATION  ACCESS:      91994  HIT:      47434  MISS:      44560  iACCESS:          0  iHIT:          0  iMISS:          0  dACCESS:          0  dHIT:          0  dMISS:          0  itACCESS:       5589  itHIT:       1776  itMISS:       3813  dtACCESS:      86405  dtHIT:      45658  dtMISS:      40747
LLC PREFETCH  REQUESTED:          0  ISSUED:          0  CROSSED:          0  USEFUL:          0  USELESS:          0
LLC AVERAGE iMISS LATENCY: 43.1077 cycles
LLC AVERAGE dMISS LATENCY: 104.552 cycles
LLC AVERAGE itMISS LATENCY: 0.827512 cycles
LLC AVERAGE dtMISS LATENCY: 8.75384 cycles
LLC PAGE CROSSINGS (TLB HIT):         0 
LLC PAGE CROSSINGS (TLB MISS):         0 
LLC AVERAGE MISS LATENCY: 157.241 cycles

PageTableWalker TOTAL       ACCESS:      74432  
PageTableWalker AVERAGE LATENCY: 5.04959 cycles
PageTableWalker TOTAL LATENCY: 375851 cycles

DRAM Statistics
Channel 0
 RQ ROW_BUFFER_HIT:     222616
  ROW_BUFFER_MISS:     587651
 AVG DBUS CONGESTED CYCLE:    3.63051
 WQ ROW_BUFFER_HIT:      15091
  ROW_BUFFER_MISS:      20912  FULL:          0

