last_page:0x200000000000000
VMEM_RES_CAP:0x100000
PAGE_SIZE:4096
LOG2_PAGE_SIZE:12
LOG2_PAGE_TABLE_SIZE:9
page_table_levels:5
WARNING: physical memory size is smaller than virtual memory size
FDiP enabled with aggresivity 16

*** ChampSim Multicore Out-of-Order Simulator ***

Warmup Instructions: 50000000
Simulation Instructions: 100000000
Number of CPUs: 1
Small page size: 4096
Large page size: 2097152

CPU 0 Bimodal branch predictor
Basic BTB sets: 1024 ways: 8 indirect buffer size: 4096 RAS size: 64
Instruction page size distrubution: 0
Loading instruction page size distribution from /home/bsc/bsc018186/scratch/itp_asplos25_AE/dump/srv609_ap.pdst
Data page size distrubution: 0
Loading data page size distribution from /home/bsc/bsc018186/scratch/itp_asplos25_AE/dump/srv609_ap.pdst
cpu0_L2C IP-based stride prefetcher
cpu0_L1D next line prefetcher
CHiRPing...
cpu0_L1I next line prefetcher
Off-chip DRAM Size: 4 GiB Channels: 1 Width: 64-bit Data Rate: 3200 MT/s
Heartbeat CPU 0 instructions: 10000002 cycles: 2500199 heartbeat IPC: 3.99969 cumulative IPC: 3.99969 (Simulation time: 0 hr 0 min 38 sec) 
Heartbeat CPU 0 instructions: 20000000 cycles: 5000284 heartbeat IPC: 3.99987 cumulative IPC: 3.99978 (Simulation time: 0 hr 1 min 18 sec) 
Heartbeat CPU 0 instructions: 30000003 cycles: 7500357 heartbeat IPC: 3.99989 cumulative IPC: 3.99982 (Simulation time: 0 hr 1 min 58 sec) 
Heartbeat CPU 0 instructions: 40000002 cycles: 10002012 heartbeat IPC: 3.99736 cumulative IPC: 3.9992 (Simulation time: 0 hr 2 min 39 sec) 
Heartbeat CPU 0 instructions: 50000002 cycles: 12502012 heartbeat IPC: 4 cumulative IPC: 3.99936 (Simulation time: 0 hr 3 min 20 sec) 
Warmup finished CPU 0 instructions: 50000002 cycles: 12502013 cumulative IPC: 3.99936 (Simulation time: 0 hr 3 min 20 sec) 

Warmup complete CPU 0 instructions: 50000002 cycles: 12502013 (Simulation time: 0 hr 3 min 20 sec) 

Heartbeat CPU 0 instructions: 60000000 cycles: 27939950 heartbeat IPC: 0.647755 cumulative IPC: 0.647755 (Simulation time: 0 hr 4 min 27 sec) 
Heartbeat CPU 0 instructions: 70000001 cycles: 43100292 heartbeat IPC: 0.659616 cumulative IPC: 0.653632 (Simulation time: 0 hr 5 min 32 sec) 
Heartbeat CPU 0 instructions: 80000001 cycles: 58191349 heartbeat IPC: 0.662645 cumulative IPC: 0.656609 (Simulation time: 0 hr 6 min 38 sec) 
Heartbeat CPU 0 instructions: 90000001 cycles: 74683765 heartbeat IPC: 0.60634 cumulative IPC: 0.643276 (Simulation time: 0 hr 7 min 46 sec) 
Heartbeat CPU 0 instructions: 100000004 cycles: 90230088 heartbeat IPC: 0.64324 cumulative IPC: 0.643269 (Simulation time: 0 hr 8 min 54 sec) 
*** Reached end of trace: /gpfs/projects/bsc18/MN4/bsc18/romol/ChampSim/traces/qualcomm_srv/srv609_ap.champsimtrace.xz
Heartbeat CPU 0 instructions: 110000002 cycles: 106326182 heartbeat IPC: 0.621269 cumulative IPC: 0.639495 (Simulation time: 0 hr 10 min 2 sec) 
Heartbeat CPU 0 instructions: 120000002 cycles: 122026748 heartbeat IPC: 0.63692 cumulative IPC: 0.639126 (Simulation time: 0 hr 11 min 9 sec) 
Heartbeat CPU 0 instructions: 130000000 cycles: 138108721 heartbeat IPC: 0.621815 cumulative IPC: 0.636909 (Simulation time: 0 hr 12 min 16 sec) 
Heartbeat CPU 0 instructions: 140000001 cycles: 154506894 heartbeat IPC: 0.609825 cumulative IPC: 0.633782 (Simulation time: 0 hr 13 min 25 sec) 
Heartbeat CPU 0 instructions: 150000000 cycles: 169141439 heartbeat IPC: 0.683315 cumulative IPC: 0.638409 (Simulation time: 0 hr 14 min 30 sec) 
Simulation finished CPU 0 instructions: 100000003 cycles: 156639428 cumulative IPC: 0.638409 (Simulation time: 0 hr 14 min 30 sec) 

Simulation complete CPU 0 instructions: 100000003 cycles: 156639428 (Simulation time: 0 hr 14 min 30 sec) 


ChampSim completed all CPUs

Saving instructions large page distribution to /home/bsc/bsc018186/scratch/itp_asplos25_AE/dump/srv609_ap.pdst...
Saving data large page distribution to /home/bsc/bsc018186/scratch/itp_asplos25_AE/dump/srv609_ap.pdst...
=== Simulation ===
CPU 0 runs /gpfs/projects/bsc18/MN4/bsc18/romol/ChampSim/traces/qualcomm_srv/srv609_ap.champsimtrace.xz

Region of Interest Statistics

CPU 0 cumulative IPC: 0.638409 instructions: 100000003 cycles: 156639428
CPU 0 Branch Prediction Accuracy: 82.7981% MPKI: 30.7994 Average ROB Occupancy at Mispredict: 12.631
Branch type MPKI
BRANCH_DIRECT_JUMP: 1.05946
BRANCH_INDIRECT: 15.699
BRANCH_CONDITIONAL: 10.2378
BRANCH_DIRECT_CALL: 1.91021
BRANCH_INDIRECT_CALL: 0.5206
BRANCH_RETURN: 1.37238

Instructions large pages: 0
Instructions small pages: 1039
Large page distribution for instructions: 0%

Data large pages: 0
Data small pages: 9598
Large page distribution for data: 0%

cpu0_L1I TOTAL       ACCESS:   35045967  HIT:   27174469  MISS:    7871498  iACCESS:   35045967  iHIT:   27174469  iMISS:    7871498  dACCESS:          0  dHIT:          0  dMISS:          0  itACCESS:          0  itHIT:          0  itMISS:          0  dtACCESS:          0  dtHIT:          0  dtMISS:          0
cpu0_L1I LOAD         ACCESS:   10268687  HIT:    8055826  MISS:    2212861  iACCESS:   10268687  iHIT:    8055826  iMISS:    2212861  dACCESS:          0  dHIT:          0  dMISS:          0  itACCESS:          0  itHIT:          0  itMISS:          0  dtACCESS:          0  dtHIT:          0  dtMISS:          0
cpu0_L1I RFO          ACCESS:          0  HIT:          0  MISS:          0  iACCESS:          0  iHIT:          0  iMISS:          0  dACCESS:          0  dHIT:          0  dMISS:          0  itACCESS:          0  itHIT:          0  itMISS:          0  dtACCESS:          0  dtHIT:          0  dtMISS:          0
cpu0_L1I PREFETCH     ACCESS:   24777280  HIT:   19118643  MISS:    5658637  iACCESS:   24777280  iHIT:   19118643  iMISS:    5658637  dACCESS:          0  dHIT:          0  dMISS:          0  itACCESS:          0  itHIT:          0  itMISS:          0  dtACCESS:          0  dtHIT:          0  dtMISS:          0
cpu0_L1I WRITE        ACCESS:          0  HIT:          0  MISS:          0  iACCESS:          0  iHIT:          0  iMISS:          0  dACCESS:          0  dHIT:          0  dMISS:          0  itACCESS:          0  itHIT:          0  itMISS:          0  dtACCESS:          0  dtHIT:          0  dtMISS:          0
cpu0_L1I TRANSLATION  ACCESS:          0  HIT:          0  MISS:          0  iACCESS:          0  iHIT:          0  iMISS:          0  dACCESS:          0  dHIT:          0  dMISS:          0  itACCESS:          0  itHIT:          0  itMISS:          0  dtACCESS:          0  dtHIT:          0  dtMISS:          0
cpu0_L1I PREFETCH  REQUESTED:   27310645  ISSUED:   27310645  CROSSED:          0  USEFUL:    1935181  USELESS:     630825
cpu0_L1I AVERAGE iMISS LATENCY: 13.1875 cycles
cpu0_L1I AVERAGE dMISS LATENCY: 0 cycles
cpu0_L1I AVERAGE itMISS LATENCY: 0 cycles
cpu0_L1I AVERAGE dtMISS LATENCY: 0 cycles
cpu0_L1I PAGE CROSSINGS (TLB HIT):         0 
cpu0_L1I PAGE CROSSINGS (TLB MISS):         0 
cpu0_L1I AVERAGE MISS LATENCY: 13.1875 cycles
cpu0_ITLB TOTAL       ACCESS:   29287478  HIT:   27335561  MISS:    1951917  iACCESS:   29287478  iHIT:   27335561  iMISS:    1951917  dACCESS:          0  dHIT:          0  dMISS:          0  itACCESS:          0  itHIT:          0  itMISS:          0  dtACCESS:          0  dtHIT:          0  dtMISS:          0
cpu0_ITLB LOAD         ACCESS:   29287478  HIT:   27335561  MISS:    1951917  iACCESS:   29287478  iHIT:   27335561  iMISS:    1951917  dACCESS:          0  dHIT:          0  dMISS:          0  itACCESS:          0  itHIT:          0  itMISS:          0  dtACCESS:          0  dtHIT:          0  dtMISS:          0
cpu0_ITLB RFO          ACCESS:          0  HIT:          0  MISS:          0  iACCESS:          0  iHIT:          0  iMISS:          0  dACCESS:          0  dHIT:          0  dMISS:          0  itACCESS:          0  itHIT:          0  itMISS:          0  dtACCESS:          0  dtHIT:          0  dtMISS:          0
cpu0_ITLB PREFETCH     ACCESS:          0  HIT:          0  MISS:          0  iACCESS:          0  iHIT:          0  iMISS:          0  dACCESS:          0  dHIT:          0  dMISS:          0  itACCESS:          0  itHIT:          0  itMISS:          0  dtACCESS:          0  dtHIT:          0  dtMISS:          0
cpu0_ITLB WRITE        ACCESS:          0  HIT:          0  MISS:          0  iACCESS:          0  iHIT:          0  iMISS:          0  dACCESS:          0  dHIT:          0  dMISS:          0  itACCESS:          0  itHIT:          0  itMISS:          0  dtACCESS:          0  dtHIT:          0  dtMISS:          0
cpu0_ITLB TRANSLATION  ACCESS:          0  HIT:          0  MISS:          0  iACCESS:          0  iHIT:          0  iMISS:          0  dACCESS:          0  dHIT:          0  dMISS:          0  itACCESS:          0  itHIT:          0  itMISS:          0  dtACCESS:          0  dtHIT:          0  dtMISS:          0
cpu0_ITLB PREFETCH  REQUESTED:          0  ISSUED:          0  CROSSED:          0  USEFUL:     316782  USELESS:      64903
cpu0_ITLB AVERAGE iMISS LATENCY: 5.35396 cycles
cpu0_ITLB AVERAGE dMISS LATENCY: 0 cycles
cpu0_ITLB AVERAGE itMISS LATENCY: 0 cycles
cpu0_ITLB AVERAGE dtMISS LATENCY: 0 cycles
cpu0_ITLB PAGE CROSSINGS (TLB HIT):         0 
cpu0_ITLB PAGE CROSSINGS (TLB MISS):         0 
cpu0_ITLB AVERAGE MISS LATENCY: 5.35396 cycles
cpu0_DTLB TOTAL       ACCESS:   27736154  HIT:   25686844  MISS:    2049310  iACCESS:          0  iHIT:          0  iMISS:          0  dACCESS:   27736154  dHIT:   25686844  dMISS:    2049310  itACCESS:          0  itHIT:          0  itMISS:          0  dtACCESS:          0  dtHIT:          0  dtMISS:          0
cpu0_DTLB LOAD         ACCESS:   27736154  HIT:   25686844  MISS:    2049310  iACCESS:          0  iHIT:          0  iMISS:          0  dACCESS:   27736154  dHIT:   25686844  dMISS:    2049310  itACCESS:          0  itHIT:          0  itMISS:          0  dtACCESS:          0  dtHIT:          0  dtMISS:          0
cpu0_DTLB RFO          ACCESS:          0  HIT:          0  MISS:          0  iACCESS:          0  iHIT:          0  iMISS:          0  dACCESS:          0  dHIT:          0  dMISS:          0  itACCESS:          0  itHIT:          0  itMISS:          0  dtACCESS:          0  dtHIT:          0  dtMISS:          0
cpu0_DTLB PREFETCH     ACCESS:          0  HIT:          0  MISS:          0  iACCESS:          0  iHIT:          0  iMISS:          0  dACCESS:          0  dHIT:          0  dMISS:          0  itACCESS:          0  itHIT:          0  itMISS:          0  dtACCESS:          0  dtHIT:          0  dtMISS:          0
cpu0_DTLB WRITE        ACCESS:          0  HIT:          0  MISS:          0  iACCESS:          0  iHIT:          0  iMISS:          0  dACCESS:          0  dHIT:          0  dMISS:          0  itACCESS:          0  itHIT:          0  itMISS:          0  dtACCESS:          0  dtHIT:          0  dtMISS:          0
cpu0_DTLB TRANSLATION  ACCESS:          0  HIT:          0  MISS:          0  iACCESS:          0  iHIT:          0  iMISS:          0  dACCESS:          0  dHIT:          0  dMISS:          0  itACCESS:          0  itHIT:          0  itMISS:          0  dtACCESS:          0  dtHIT:          0  dtMISS:          0
cpu0_DTLB PREFETCH  REQUESTED:          0  ISSUED:          0  CROSSED:          0  USEFUL:          0  USELESS:          0
cpu0_DTLB AVERAGE iMISS LATENCY: 0 cycles
cpu0_DTLB AVERAGE dMISS LATENCY: 14.9214 cycles
cpu0_DTLB AVERAGE itMISS LATENCY: 0 cycles
cpu0_DTLB AVERAGE dtMISS LATENCY: 0 cycles
cpu0_DTLB PAGE CROSSINGS (TLB HIT):         0 
cpu0_DTLB PAGE CROSSINGS (TLB MISS):         0 
cpu0_DTLB AVERAGE MISS LATENCY: 14.9214 cycles
cpu0_STLB TOTAL       ACCESS:    1634794  HIT:    1462882  MISS:     171912  iACCESS:     381687  iHIT:     321662  iMISS:      60025  dACCESS:    1253107  dHIT:    1141220  dMISS:     111887  itACCESS:          0  itHIT:          0  itMISS:          0  dtACCESS:          0  dtHIT:          0  dtMISS:          0
cpu0_STLB LOAD         ACCESS:    1634794  HIT:    1462882  MISS:     171912  iACCESS:     381687  iHIT:     321662  iMISS:      60025  dACCESS:    1253107  dHIT:    1141220  dMISS:     111887  itACCESS:          0  itHIT:          0  itMISS:          0  dtACCESS:          0  dtHIT:          0  dtMISS:          0
cpu0_STLB RFO          ACCESS:          0  HIT:          0  MISS:          0  iACCESS:          0  iHIT:          0  iMISS:          0  dACCESS:          0  dHIT:          0  dMISS:          0  itACCESS:          0  itHIT:          0  itMISS:          0  dtACCESS:          0  dtHIT:          0  dtMISS:          0
cpu0_STLB PREFETCH     ACCESS:          0  HIT:          0  MISS:          0  iACCESS:          0  iHIT:          0  iMISS:          0  dACCESS:          0  dHIT:          0  dMISS:          0  itACCESS:          0  itHIT:          0  itMISS:          0  dtACCESS:          0  dtHIT:          0  dtMISS:          0
cpu0_STLB WRITE        ACCESS:          0  HIT:          0  MISS:          0  iACCESS:          0  iHIT:          0  iMISS:          0  dACCESS:          0  dHIT:          0  dMISS:          0  itACCESS:          0  itHIT:          0  itMISS:          0  dtACCESS:          0  dtHIT:          0  dtMISS:          0
cpu0_STLB TRANSLATION  ACCESS:          0  HIT:          0  MISS:          0  iACCESS:          0  iHIT:          0  iMISS:          0  dACCESS:          0  dHIT:          0  dMISS:          0  itACCESS:          0  itHIT:          0  itMISS:          0  dtACCESS:          0  dtHIT:          0  dtMISS:          0
cpu0_STLB PREFETCH  REQUESTED:          0  ISSUED:          0  CROSSED:          0  USEFUL:          0  USELESS:          0
cpu0_STLB AVERAGE iMISS LATENCY: 43.2374 cycles
cpu0_STLB AVERAGE dMISS LATENCY: 119.762 cycles
cpu0_STLB AVERAGE itMISS LATENCY: 0 cycles
cpu0_STLB AVERAGE dtMISS LATENCY: 0 cycles
cpu0_STLB PAGE CROSSINGS (TLB HIT):         0 
cpu0_STLB PAGE CROSSINGS (TLB MISS):         0 
cpu0_STLB AVERAGE MISS LATENCY: 162.999 cycles
cpu0_L1D TOTAL       ACCESS:   41566694  HIT:   38025764  MISS:    3540930  iACCESS:          0  iHIT:          0  iMISS:          0  dACCESS:   41331920  dHIT:   38005108  dMISS:    3326812  itACCESS:      65046  itHIT:       9397  itMISS:      55649  dtACCESS:     169728  dtHIT:      11259  dtMISS:     158469
cpu0_L1D LOAD         ACCESS:   18944456  HIT:   17422587  MISS:    1521869  iACCESS:          0  iHIT:          0  iMISS:          0  dACCESS:   18944456  dHIT:   17422587  dMISS:    1521869  itACCESS:          0  itHIT:          0  itMISS:          0  dtACCESS:          0  dtHIT:          0  dtMISS:          0
cpu0_L1D RFO          ACCESS:          0  HIT:          0  MISS:          0  iACCESS:          0  iHIT:          0  iMISS:          0  dACCESS:          0  dHIT:          0  dMISS:          0  itACCESS:          0  itHIT:          0  itMISS:          0  dtACCESS:          0  dtHIT:          0  dtMISS:          0
cpu0_L1D PREFETCH     ACCESS:   12178462  HIT:   10812840  MISS:    1365622  iACCESS:          0  iHIT:          0  iMISS:          0  dACCESS:   12178462  dHIT:   10812840  dMISS:    1365622  itACCESS:          0  itHIT:          0  itMISS:          0  dtACCESS:          0  dtHIT:          0  dtMISS:          0
cpu0_L1D WRITE        ACCESS:   10209002  HIT:    9769681  MISS:     439321  iACCESS:          0  iHIT:          0  iMISS:          0  dACCESS:   10209002  dHIT:    9769681  dMISS:     439321  itACCESS:          0  itHIT:          0  itMISS:          0  dtACCESS:          0  dtHIT:          0  dtMISS:          0
cpu0_L1D TRANSLATION  ACCESS:     234774  HIT:      20656  MISS:     214118  iACCESS:          0  iHIT:          0  iMISS:          0  dACCESS:          0  dHIT:          0  dMISS:          0  itACCESS:      65046  itHIT:       9397  itMISS:      55649  dtACCESS:     169728  dtHIT:      11259  dtMISS:     158469
cpu0_L1D PREFETCH  REQUESTED:   18944456  ISSUED:   16976541  CROSSED:          0  USEFUL:     304444  USELESS:     705568
cpu0_L1D AVERAGE iMISS LATENCY: 0 cycles
cpu0_L1D AVERAGE dMISS LATENCY: 32.7875 cycles
cpu0_L1D AVERAGE itMISS LATENCY: 1.953 cycles
cpu0_L1D AVERAGE dtMISS LATENCY: 5.15913 cycles
cpu0_L1D PAGE CROSSINGS (TLB HIT):         0 
cpu0_L1D PAGE CROSSINGS (TLB MISS):         0 
cpu0_L1D AVERAGE MISS LATENCY: 39.8996 cycles
cpu0_L2C TOTAL       ACCESS:    7027257  HIT:    4033227  MISS:    2994030  iACCESS:    3315355  iHIT:    2201673  iMISS:    1113682  dACCESS:    3508806  dHIT:    1799105  dMISS:    1709701  itACCESS:      55649  itHIT:      10206  itMISS:      45443  dtACCESS:     147447  dtHIT:      22243  dtMISS:     125204
cpu0_L2C LOAD         ACCESS:    1723862  HIT:    1029413  MISS:     694449  iACCESS:     788311  iHIT:     550110  iMISS:     238201  dACCESS:     935551  dHIT:     479303  dMISS:     456248  itACCESS:          0  itHIT:          0  itMISS:          0  dtACCESS:          0  dtHIT:          0  dtMISS:          0
cpu0_L2C RFO          ACCESS:     159447  HIT:      74718  MISS:      84729  iACCESS:          0  iHIT:          0  iMISS:          0  dACCESS:     159447  dHIT:      74718  dMISS:      84729  itACCESS:          0  itHIT:          0  itMISS:          0  dtACCESS:          0  dtHIT:          0  dtMISS:          0
cpu0_L2C PREFETCH     ACCESS:    4657288  HIT:    2614563  MISS:    2042725  iACCESS:    2527044  iHIT:    1651563  iMISS:     875481  dACCESS:    2130244  dHIT:     963000  dMISS:    1167244  itACCESS:          0  itHIT:          0  itMISS:          0  dtACCESS:          0  dtHIT:          0  dtMISS:          0
cpu0_L2C WRITE        ACCESS:     283564  HIT:     282084  MISS:       1480  iACCESS:          0  iHIT:          0  iMISS:          0  dACCESS:     283564  dHIT:     282084  dMISS:       1480  itACCESS:          0  itHIT:          0  itMISS:          0  dtACCESS:          0  dtHIT:          0  dtMISS:          0
cpu0_L2C TRANSLATION  ACCESS:     203096  HIT:      32449  MISS:     170647  iACCESS:          0  iHIT:          0  iMISS:          0  dACCESS:          0  dHIT:          0  dMISS:          0  itACCESS:      55649  itHIT:      10206  itMISS:      45443  dtACCESS:     147447  dtHIT:      22243  dtMISS:     125204
cpu0_L2C PREFETCH  REQUESTED:    1379750  ISSUED:    1379662  CROSSED:          0  USEFUL:     331741  USELESS:     238766
cpu0_L2C AVERAGE iMISS LATENCY: 24.6605 cycles
cpu0_L2C AVERAGE dMISS LATENCY: 46.2846 cycles
cpu0_L2C AVERAGE itMISS LATENCY: 2.12676 cycles
cpu0_L2C AVERAGE dtMISS LATENCY: 5.61259 cycles
cpu0_L2C PAGE CROSSINGS (TLB HIT):         0 
cpu0_L2C PAGE CROSSINGS (TLB MISS):         0 
cpu0_L2C AVERAGE MISS LATENCY: 78.6843 cycles
LLC TOTAL       ACCESS:    3004642  HIT:    1859124  MISS:    1145518  iACCESS:    1053986  iHIT:     689944  iMISS:     364042  dACCESS:    1780009  dHIT:    1110475  dMISS:     669534  itACCESS:      45443  itHIT:      13616  itMISS:      31827  dtACCESS:     125204  dtHIT:      45089  dtMISS:      80115
LLC LOAD         ACCESS:     692171  HIT:     447145  MISS:     245026  iACCESS:     236890  iHIT:     158988  iMISS:      77902  dACCESS:     455281  dHIT:     288157  dMISS:     167124  itACCESS:          0  itHIT:          0  itMISS:          0  dtACCESS:          0  dtHIT:          0  dtMISS:          0
LLC RFO          ACCESS:      84725  HIT:      44299  MISS:      40426  iACCESS:          0  iHIT:          0  iMISS:          0  dACCESS:      84725  dHIT:      44299  dMISS:      40426  itACCESS:          0  itHIT:          0  itMISS:          0  dtACCESS:          0  dtHIT:          0  dtMISS:          0
LLC PREFETCH     ACCESS:    1924213  HIT:    1181892  MISS:     742321  iACCESS:     817096  iHIT:     530956  iMISS:     286140  dACCESS:    1107117  dHIT:     650936  dMISS:     456181  itACCESS:          0  itHIT:          0  itMISS:          0  dtACCESS:          0  dtHIT:          0  dtMISS:          0
LLC WRITE        ACCESS:     132886  HIT:     127083  MISS:       5803  iACCESS:          0  iHIT:          0  iMISS:          0  dACCESS:     132886  dHIT:     127083  dMISS:       5803  itACCESS:          0  itHIT:          0  itMISS:          0  dtACCESS:          0  dtHIT:          0  dtMISS:          0
LLC TRANSLATION  ACCESS:     170647  HIT:      58705  MISS:     111942  iACCESS:          0  iHIT:          0  iMISS:          0  dACCESS:          0  dHIT:          0  dMISS:          0  itACCESS:      45443  itHIT:      13616  itMISS:      31827  dtACCESS:     125204  dtHIT:      45089  dtMISS:      80115
LLC PREFETCH  REQUESTED:          0  ISSUED:          0  CROSSED:          0  USEFUL:          0  USELESS:          0
LLC AVERAGE iMISS LATENCY: 46.5551 cycles
LLC AVERAGE dMISS LATENCY: 93.2358 cycles
LLC AVERAGE itMISS LATENCY: 4.77954 cycles
LLC AVERAGE dtMISS LATENCY: 12.5299 cycles
LLC PAGE CROSSINGS (TLB HIT):         0 
LLC PAGE CROSSINGS (TLB MISS):         0 
LLC AVERAGE MISS LATENCY: 157.101 cycles

PageTableWalker TOTAL       ACCESS:      87147  
PageTableWalker AVERAGE LATENCY: 5.24254 cycles
PageTableWalker TOTAL LATENCY: 456871 cycles

DRAM Statistics
Channel 0
 RQ ROW_BUFFER_HIT:     313927
  ROW_BUFFER_MISS:     825077
 AVG DBUS CONGESTED CYCLE:    3.61872
 WQ ROW_BUFFER_HIT:      21915
  ROW_BUFFER_MISS:      21017  FULL:          0

