last_page:0x200000000000000
VMEM_RES_CAP:0x100000
PAGE_SIZE:4096
LOG2_PAGE_SIZE:12
LOG2_PAGE_TABLE_SIZE:9
page_table_levels:5
WARNING: physical memory size is smaller than virtual memory size
FDiP enabled with aggresivity 16

*** ChampSim Multicore Out-of-Order Simulator ***

Warmup Instructions: 50000000
Simulation Instructions: 100000000
Number of CPUs: 1
Small page size: 4096
Large page size: 2097152

CPU 0 Bimodal branch predictor
Basic BTB sets: 1024 ways: 8 indirect buffer size: 4096 RAS size: 64
Instruction page size distrubution: 0
Loading instruction page size distribution from /home/bsc/bsc018186/scratch/itp_asplos25_AE/dump/srv662_ap.pdst
Data page size distrubution: 0
Loading data page size distribution from /home/bsc/bsc018186/scratch/itp_asplos25_AE/dump/srv662_ap.pdst
cpu0_L2C IP-based stride prefetcher
cpu0_L2C is using PTP replacement policy:
	TLB_STRESS_THRESHOLD:0
	PTE_EVICTION_RATIO:0
cpu0_L1D next line prefetcher
cpu0_L1I next line prefetcher
Off-chip DRAM Size: 4 GiB Channels: 1 Width: 64-bit Data Rate: 3200 MT/s
Heartbeat CPU 0 instructions: 10000000 cycles: 2500101 heartbeat IPC: 3.99984 cumulative IPC: 3.99984 (Simulation time: 0 hr 0 min 37 sec) 
Heartbeat CPU 0 instructions: 20000002 cycles: 5000145 heartbeat IPC: 3.99994 cumulative IPC: 3.99989 (Simulation time: 0 hr 1 min 16 sec) 
Heartbeat CPU 0 instructions: 30000001 cycles: 7500285 heartbeat IPC: 3.99978 cumulative IPC: 3.99985 (Simulation time: 0 hr 1 min 57 sec) 
Heartbeat CPU 0 instructions: 40000002 cycles: 10000338 heartbeat IPC: 3.99992 cumulative IPC: 3.99987 (Simulation time: 0 hr 2 min 38 sec) 
Heartbeat CPU 0 instructions: 50000001 cycles: 12500390 heartbeat IPC: 3.99992 cumulative IPC: 3.99988 (Simulation time: 0 hr 3 min 19 sec) 
Warmup finished CPU 0 instructions: 50000001 cycles: 12500391 cumulative IPC: 3.99988 (Simulation time: 0 hr 3 min 19 sec) 

Warmup complete CPU 0 instructions: 50000001 cycles: 12500391 (Simulation time: 0 hr 3 min 19 sec) 

Heartbeat CPU 0 instructions: 60000002 cycles: 27034678 heartbeat IPC: 0.688029 cumulative IPC: 0.688029 (Simulation time: 0 hr 4 min 23 sec) 
Heartbeat CPU 0 instructions: 70000001 cycles: 40937796 heartbeat IPC: 0.719264 cumulative IPC: 0.7033 (Simulation time: 0 hr 5 min 27 sec) 
Heartbeat CPU 0 instructions: 80000000 cycles: 56028723 heartbeat IPC: 0.66265 cumulative IPC: 0.689207 (Simulation time: 0 hr 6 min 32 sec) 
Heartbeat CPU 0 instructions: 90000003 cycles: 71051748 heartbeat IPC: 0.665646 cumulative IPC: 0.683161 (Simulation time: 0 hr 7 min 37 sec) 
Heartbeat CPU 0 instructions: 100000000 cycles: 85460707 heartbeat IPC: 0.694013 cumulative IPC: 0.685305 (Simulation time: 0 hr 8 min 43 sec) 
*** Reached end of trace: /gpfs/projects/bsc18/MN4/bsc18/romol/ChampSim/traces/qualcomm_srv/srv662_ap.champsimtrace.xz
Heartbeat CPU 0 instructions: 110000003 cycles: 99157980 heartbeat IPC: 0.730073 cumulative IPC: 0.692381 (Simulation time: 0 hr 9 min 48 sec) 
Heartbeat CPU 0 instructions: 120000000 cycles: 113287394 heartbeat IPC: 0.707744 cumulative IPC: 0.694534 (Simulation time: 0 hr 10 min 53 sec) 
Heartbeat CPU 0 instructions: 130000004 cycles: 127600509 heartbeat IPC: 0.698661 cumulative IPC: 0.695048 (Simulation time: 0 hr 11 min 59 sec) 
Heartbeat CPU 0 instructions: 140000001 cycles: 142166925 heartbeat IPC: 0.686511 cumulative IPC: 0.694089 (Simulation time: 0 hr 13 min 5 sec) 
Heartbeat CPU 0 instructions: 150000000 cycles: 157151848 heartbeat IPC: 0.667338 cumulative IPC: 0.691317 (Simulation time: 0 hr 14 min 12 sec) 
Simulation finished CPU 0 instructions: 100000002 cycles: 144651459 cumulative IPC: 0.691317 (Simulation time: 0 hr 14 min 12 sec) 

Simulation complete CPU 0 instructions: 100000002 cycles: 144651459 (Simulation time: 0 hr 14 min 12 sec) 


ChampSim completed all CPUs

Saving instructions large page distribution to /home/bsc/bsc018186/scratch/itp_asplos25_AE/dump/srv662_ap.pdst...
Saving data large page distribution to /home/bsc/bsc018186/scratch/itp_asplos25_AE/dump/srv662_ap.pdst...
=== Simulation ===
CPU 0 runs /gpfs/projects/bsc18/MN4/bsc18/romol/ChampSim/traces/qualcomm_srv/srv662_ap.champsimtrace.xz

Region of Interest Statistics

CPU 0 cumulative IPC: 0.691317 instructions: 100000002 cycles: 144651459
CPU 0 Branch Prediction Accuracy: 82.6449% MPKI: 31.087 Average ROB Occupancy at Mispredict: 12.5696
Branch type MPKI
BRANCH_DIRECT_JUMP: 1.05382
BRANCH_INDIRECT: 16.0046
BRANCH_CONDITIONAL: 10.2307
BRANCH_DIRECT_CALL: 1.90915
BRANCH_INDIRECT_CALL: 0.52116
BRANCH_RETURN: 1.36761

Instructions large pages: 0
Instructions small pages: 975
Large page distribution for instructions: 0%

Data large pages: 0
Data small pages: 9556
Large page distribution for data: 0%

cpu0_L1I TOTAL       ACCESS:   35739239  HIT:   27201677  MISS:    8537562  iACCESS:   35739239  iHIT:   27201677  iMISS:    8537562  dACCESS:          0  dHIT:          0  dMISS:          0  itACCESS:          0  itHIT:          0  itMISS:          0  dtACCESS:          0  dtHIT:          0  dtMISS:          0
cpu0_L1I LOAD         ACCESS:   10467517  HIT:    8082592  MISS:    2384925  iACCESS:   10467517  iHIT:    8082592  iMISS:    2384925  dACCESS:          0  dHIT:          0  dMISS:          0  itACCESS:          0  itHIT:          0  itMISS:          0  dtACCESS:          0  dtHIT:          0  dtMISS:          0
cpu0_L1I RFO          ACCESS:          0  HIT:          0  MISS:          0  iACCESS:          0  iHIT:          0  iMISS:          0  dACCESS:          0  dHIT:          0  dMISS:          0  itACCESS:          0  itHIT:          0  itMISS:          0  dtACCESS:          0  dtHIT:          0  dtMISS:          0
cpu0_L1I PREFETCH     ACCESS:   25271722  HIT:   19119085  MISS:    6152637  iACCESS:   25271722  iHIT:   19119085  iMISS:    6152637  dACCESS:          0  dHIT:          0  dMISS:          0  itACCESS:          0  itHIT:          0  itMISS:          0  dtACCESS:          0  dtHIT:          0  dtMISS:          0
cpu0_L1I WRITE        ACCESS:          0  HIT:          0  MISS:          0  iACCESS:          0  iHIT:          0  iMISS:          0  dACCESS:          0  dHIT:          0  dMISS:          0  itACCESS:          0  itHIT:          0  itMISS:          0  dtACCESS:          0  dtHIT:          0  dtMISS:          0
cpu0_L1I TRANSLATION  ACCESS:          0  HIT:          0  MISS:          0  iACCESS:          0  iHIT:          0  iMISS:          0  dACCESS:          0  dHIT:          0  dMISS:          0  itACCESS:          0  itHIT:          0  itMISS:          0  dtACCESS:          0  dtHIT:          0  dtMISS:          0
cpu0_L1I PREFETCH  REQUESTED:   27532749  ISSUED:   27529601  CROSSED:          0  USEFUL:    1948861  USELESS:     630307
cpu0_L1I AVERAGE iMISS LATENCY: 14.151 cycles
cpu0_L1I AVERAGE dMISS LATENCY: 0 cycles
cpu0_L1I AVERAGE itMISS LATENCY: 0 cycles
cpu0_L1I AVERAGE dtMISS LATENCY: 0 cycles
cpu0_L1I PAGE CROSSINGS (TLB HIT):         0 
cpu0_L1I PAGE CROSSINGS (TLB MISS):         0 
cpu0_L1I AVERAGE MISS LATENCY: 14.151 cycles
cpu0_ITLB TOTAL       ACCESS:   29524236  HIT:   27590196  MISS:    1934040  iACCESS:   29524236  iHIT:   27590196  iMISS:    1934040  dACCESS:          0  dHIT:          0  dMISS:          0  itACCESS:          0  itHIT:          0  itMISS:          0  dtACCESS:          0  dtHIT:          0  dtMISS:          0
cpu0_ITLB LOAD         ACCESS:   29524236  HIT:   27590196  MISS:    1934040  iACCESS:   29524236  iHIT:   27590196  iMISS:    1934040  dACCESS:          0  dHIT:          0  dMISS:          0  itACCESS:          0  itHIT:          0  itMISS:          0  dtACCESS:          0  dtHIT:          0  dtMISS:          0
cpu0_ITLB RFO          ACCESS:          0  HIT:          0  MISS:          0  iACCESS:          0  iHIT:          0  iMISS:          0  dACCESS:          0  dHIT:          0  dMISS:          0  itACCESS:          0  itHIT:          0  itMISS:          0  dtACCESS:          0  dtHIT:          0  dtMISS:          0
cpu0_ITLB PREFETCH     ACCESS:          0  HIT:          0  MISS:          0  iACCESS:          0  iHIT:          0  iMISS:          0  dACCESS:          0  dHIT:          0  dMISS:          0  itACCESS:          0  itHIT:          0  itMISS:          0  dtACCESS:          0  dtHIT:          0  dtMISS:          0
cpu0_ITLB WRITE        ACCESS:          0  HIT:          0  MISS:          0  iACCESS:          0  iHIT:          0  iMISS:          0  dACCESS:          0  dHIT:          0  dMISS:          0  itACCESS:          0  itHIT:          0  itMISS:          0  dtACCESS:          0  dtHIT:          0  dtMISS:          0
cpu0_ITLB TRANSLATION  ACCESS:          0  HIT:          0  MISS:          0  iACCESS:          0  iHIT:          0  iMISS:          0  dACCESS:          0  dHIT:          0  dMISS:          0  itACCESS:          0  itHIT:          0  itMISS:          0  dtACCESS:          0  dtHIT:          0  dtMISS:          0
cpu0_ITLB PREFETCH  REQUESTED:          0  ISSUED:          0  CROSSED:          0  USEFUL:     318440  USELESS:      63602
cpu0_ITLB AVERAGE iMISS LATENCY: 2.89267 cycles
cpu0_ITLB AVERAGE dMISS LATENCY: 0 cycles
cpu0_ITLB AVERAGE itMISS LATENCY: 0 cycles
cpu0_ITLB AVERAGE dtMISS LATENCY: 0 cycles
cpu0_ITLB PAGE CROSSINGS (TLB HIT):         0 
cpu0_ITLB PAGE CROSSINGS (TLB MISS):         0 
cpu0_ITLB AVERAGE MISS LATENCY: 2.89267 cycles
cpu0_DTLB TOTAL       ACCESS:   27844316  HIT:   25992411  MISS:    1851905  iACCESS:          0  iHIT:          0  iMISS:          0  dACCESS:   27844316  dHIT:   25992411  dMISS:    1851905  itACCESS:          0  itHIT:          0  itMISS:          0  dtACCESS:          0  dtHIT:          0  dtMISS:          0
cpu0_DTLB LOAD         ACCESS:   27844316  HIT:   25992411  MISS:    1851905  iACCESS:          0  iHIT:          0  iMISS:          0  dACCESS:   27844316  dHIT:   25992411  dMISS:    1851905  itACCESS:          0  itHIT:          0  itMISS:          0  dtACCESS:          0  dtHIT:          0  dtMISS:          0
cpu0_DTLB RFO          ACCESS:          0  HIT:          0  MISS:          0  iACCESS:          0  iHIT:          0  iMISS:          0  dACCESS:          0  dHIT:          0  dMISS:          0  itACCESS:          0  itHIT:          0  itMISS:          0  dtACCESS:          0  dtHIT:          0  dtMISS:          0
cpu0_DTLB PREFETCH     ACCESS:          0  HIT:          0  MISS:          0  iACCESS:          0  iHIT:          0  iMISS:          0  dACCESS:          0  dHIT:          0  dMISS:          0  itACCESS:          0  itHIT:          0  itMISS:          0  dtACCESS:          0  dtHIT:          0  dtMISS:          0
cpu0_DTLB WRITE        ACCESS:          0  HIT:          0  MISS:          0  iACCESS:          0  iHIT:          0  iMISS:          0  dACCESS:          0  dHIT:          0  dMISS:          0  itACCESS:          0  itHIT:          0  itMISS:          0  dtACCESS:          0  dtHIT:          0  dtMISS:          0
cpu0_DTLB TRANSLATION  ACCESS:          0  HIT:          0  MISS:          0  iACCESS:          0  iHIT:          0  iMISS:          0  dACCESS:          0  dHIT:          0  dMISS:          0  itACCESS:          0  itHIT:          0  itMISS:          0  dtACCESS:          0  dtHIT:          0  dtMISS:          0
cpu0_DTLB PREFETCH  REQUESTED:          0  ISSUED:          0  CROSSED:          0  USEFUL:          0  USELESS:          0
cpu0_DTLB AVERAGE iMISS LATENCY: 0 cycles
cpu0_DTLB AVERAGE dMISS LATENCY: 9.46176 cycles
cpu0_DTLB AVERAGE itMISS LATENCY: 0 cycles
cpu0_DTLB AVERAGE dtMISS LATENCY: 0 cycles
cpu0_DTLB PAGE CROSSINGS (TLB HIT):         0 
cpu0_DTLB PAGE CROSSINGS (TLB MISS):         0 
cpu0_DTLB AVERAGE MISS LATENCY: 9.46176 cycles
cpu0_STLB TOTAL       ACCESS:    1521707  HIT:    1350285  MISS:     171422  iACCESS:     382088  iHIT:     322833  iMISS:      59255  dACCESS:    1139619  dHIT:    1027452  dMISS:     112167  itACCESS:          0  itHIT:          0  itMISS:          0  dtACCESS:          0  dtHIT:          0  dtMISS:          0
cpu0_STLB LOAD         ACCESS:    1521707  HIT:    1350285  MISS:     171422  iACCESS:     382088  iHIT:     322833  iMISS:      59255  dACCESS:    1139619  dHIT:    1027452  dMISS:     112167  itACCESS:          0  itHIT:          0  itMISS:          0  dtACCESS:          0  dtHIT:          0  dtMISS:          0
cpu0_STLB RFO          ACCESS:          0  HIT:          0  MISS:          0  iACCESS:          0  iHIT:          0  iMISS:          0  dACCESS:          0  dHIT:          0  dMISS:          0  itACCESS:          0  itHIT:          0  itMISS:          0  dtACCESS:          0  dtHIT:          0  dtMISS:          0
cpu0_STLB PREFETCH     ACCESS:          0  HIT:          0  MISS:          0  iACCESS:          0  iHIT:          0  iMISS:          0  dACCESS:          0  dHIT:          0  dMISS:          0  itACCESS:          0  itHIT:          0  itMISS:          0  dtACCESS:          0  dtHIT:          0  dtMISS:          0
cpu0_STLB WRITE        ACCESS:          0  HIT:          0  MISS:          0  iACCESS:          0  iHIT:          0  iMISS:          0  dACCESS:          0  dHIT:          0  dMISS:          0  itACCESS:          0  itHIT:          0  itMISS:          0  dtACCESS:          0  dtHIT:          0  dtMISS:          0
cpu0_STLB TRANSLATION  ACCESS:          0  HIT:          0  MISS:          0  iACCESS:          0  iHIT:          0  iMISS:          0  dACCESS:          0  dHIT:          0  dMISS:          0  itACCESS:          0  itHIT:          0  itMISS:          0  dtACCESS:          0  dtHIT:          0  dtMISS:          0
cpu0_STLB PREFETCH  REQUESTED:          0  ISSUED:          0  CROSSED:          0  USEFUL:          0  USELESS:          0
cpu0_STLB AVERAGE iMISS LATENCY: 15.0397 cycles
cpu0_STLB AVERAGE dMISS LATENCY: 49.1468 cycles
cpu0_STLB AVERAGE itMISS LATENCY: 0 cycles
cpu0_STLB AVERAGE dtMISS LATENCY: 0 cycles
cpu0_STLB PAGE CROSSINGS (TLB HIT):         0 
cpu0_STLB PAGE CROSSINGS (TLB MISS):         0 
cpu0_STLB AVERAGE MISS LATENCY: 64.1865 cycles
cpu0_L1D TOTAL       ACCESS:   41631546  HIT:   38116994  MISS:    3514552  iACCESS:          0  iHIT:          0  iMISS:          0  dACCESS:   41397518  dHIT:   38096964  dMISS:    3300554  itACCESS:      64268  itHIT:       9170  itMISS:      55098  dtACCESS:     169760  dtHIT:      10860  dtMISS:     158900
cpu0_L1D LOAD         ACCESS:   19047773  HIT:   17549497  MISS:    1498276  iACCESS:          0  iHIT:          0  iMISS:          0  dACCESS:   19047773  dHIT:   17549497  dMISS:    1498276  itACCESS:          0  itHIT:          0  itMISS:          0  dtACCESS:          0  dtHIT:          0  dtMISS:          0
cpu0_L1D RFO          ACCESS:          0  HIT:          0  MISS:          0  iACCESS:          0  iHIT:          0  iMISS:          0  dACCESS:          0  dHIT:          0  dMISS:          0  itACCESS:          0  itHIT:          0  itMISS:          0  dtACCESS:          0  dtHIT:          0  dtMISS:          0
cpu0_L1D PREFETCH     ACCESS:   12156750  HIT:   10790055  MISS:    1366695  iACCESS:          0  iHIT:          0  iMISS:          0  dACCESS:   12156750  dHIT:   10790055  dMISS:    1366695  itACCESS:          0  itHIT:          0  itMISS:          0  dtACCESS:          0  dtHIT:          0  dtMISS:          0
cpu0_L1D WRITE        ACCESS:   10192995  HIT:    9757412  MISS:     435583  iACCESS:          0  iHIT:          0  iMISS:          0  dACCESS:   10192995  dHIT:    9757412  dMISS:     435583  itACCESS:          0  itHIT:          0  itMISS:          0  dtACCESS:          0  dtHIT:          0  dtMISS:          0
cpu0_L1D TRANSLATION  ACCESS:     234028  HIT:      20030  MISS:     213998  iACCESS:          0  iHIT:          0  iMISS:          0  dACCESS:          0  dHIT:          0  dMISS:          0  itACCESS:      64268  itHIT:       9170  itMISS:      55098  dtACCESS:     169760  dtHIT:      10860  dtMISS:     158900
cpu0_L1D PREFETCH  REQUESTED:   19047773  ISSUED:   16945255  CROSSED:          0  USEFUL:     308699  USELESS:     704975
cpu0_L1D AVERAGE iMISS LATENCY: 0 cycles
cpu0_L1D AVERAGE dMISS LATENCY: 35.9518 cycles
cpu0_L1D AVERAGE itMISS LATENCY: 0.588258 cycles
cpu0_L1D AVERAGE dtMISS LATENCY: 1.72923 cycles
cpu0_L1D PAGE CROSSINGS (TLB HIT):         0 
cpu0_L1D PAGE CROSSINGS (TLB MISS):         0 
cpu0_L1D AVERAGE MISS LATENCY: 38.2693 cycles
cpu0_L2C TOTAL       ACCESS:    7042637  HIT:    1241631  MISS:    5801006  iACCESS:    3319508  iHIT:     695748  iMISS:    2623760  dACCESS:    3520160  dHIT:     382349  dMISS:    3137811  itACCESS:      55098  itHIT:      44029  itMISS:      11069  dtACCESS:     147871  dtHIT:     119505  dtMISS:      28366
cpu0_L2C LOAD         ACCESS:    1710982  HIT:     131543  MISS:    1579439  iACCESS:     778533  iHIT:      93058  iMISS:     685475  dACCESS:     932449  dHIT:      38485  dMISS:     893964  itACCESS:          0  itHIT:          0  itMISS:          0  dtACCESS:          0  dtHIT:          0  dtMISS:          0
cpu0_L2C RFO          ACCESS:     159417  HIT:       7726  MISS:     151691  iACCESS:          0  iHIT:          0  iMISS:          0  dACCESS:     159417  dHIT:       7726  dMISS:     151691  itACCESS:          0  itHIT:          0  itMISS:          0  dtACCESS:          0  dtHIT:          0  dtMISS:          0
cpu0_L2C PREFETCH     ACCESS:    4686160  HIT:     881888  MISS:    3804272  iACCESS:    2540975  iHIT:     602690  iMISS:    1938285  dACCESS:    2145185  dHIT:     279198  dMISS:    1865987  itACCESS:          0  itHIT:          0  itMISS:          0  dtACCESS:          0  dtHIT:          0  dtMISS:          0
cpu0_L2C WRITE        ACCESS:     283109  HIT:      56940  MISS:     226169  iACCESS:          0  iHIT:          0  iMISS:          0  dACCESS:     283109  dHIT:      56940  dMISS:     226169  itACCESS:          0  itHIT:          0  itMISS:          0  dtACCESS:          0  dtHIT:          0  dtMISS:          0
cpu0_L2C TRANSLATION  ACCESS:     202969  HIT:     163534  MISS:      39435  iACCESS:          0  iHIT:          0  iMISS:          0  dACCESS:          0  dHIT:          0  dMISS:          0  itACCESS:      55098  itHIT:      44029  itMISS:      11069  dtACCESS:     147871  dtHIT:     119505  dtMISS:      28366
cpu0_L2C PREFETCH  REQUESTED:    1396313  ISSUED:    1396313  CROSSED:          0  USEFUL:     431803  USELESS:     394566
cpu0_L2C AVERAGE iMISS LATENCY: 15.4978 cycles
cpu0_L2C AVERAGE dMISS LATENCY: 25.6124 cycles
cpu0_L2C AVERAGE itMISS LATENCY: 0.268801 cycles
cpu0_L2C AVERAGE dtMISS LATENCY: 0.811945 cycles
cpu0_L2C PAGE CROSSINGS (TLB HIT):         0 
cpu0_L2C PAGE CROSSINGS (TLB MISS):         0 
cpu0_L2C AVERAGE MISS LATENCY: 42.1908 cycles
LLC TOTAL       ACCESS:    5716593  HIT:    4845884  MISS:     870709  iACCESS:    2567336  iHIT:    2293789  iMISS:     273547  dACCESS:    3109822  dHIT:    2543909  dMISS:     565913  itACCESS:      11069  itHIT:       3308  itMISS:       7761  dtACCESS:      28366  dtHIT:       4878  dtMISS:      23488
LLC LOAD         ACCESS:    1577594  HIT:    1377227  MISS:     200367  iACCESS:     684137  iHIT:     625958  iMISS:      58179  dACCESS:     893457  dHIT:     751269  dMISS:     142188  itACCESS:          0  itHIT:          0  itMISS:          0  dtACCESS:          0  dtHIT:          0  dtMISS:          0
LLC RFO          ACCESS:     151685  HIT:     110214  MISS:      41471  iACCESS:          0  iHIT:          0  iMISS:          0  dACCESS:     151685  dHIT:     110214  dMISS:      41471  itACCESS:          0  itHIT:          0  itMISS:          0  dtACCESS:          0  dtHIT:          0  dtMISS:          0
LLC PREFETCH     ACCESS:    3690578  HIT:    3092956  MISS:     597622  iACCESS:    1883199  iHIT:    1667831  iMISS:     215368  dACCESS:    1807379  dHIT:    1425125  dMISS:     382254  itACCESS:          0  itHIT:          0  itMISS:          0  dtACCESS:          0  dtHIT:          0  dtMISS:          0
LLC WRITE        ACCESS:     257301  HIT:     257301  MISS:          0  iACCESS:          0  iHIT:          0  iMISS:          0  dACCESS:     257301  dHIT:     257301  dMISS:          0  itACCESS:          0  itHIT:          0  itMISS:          0  dtACCESS:          0  dtHIT:          0  dtMISS:          0
LLC TRANSLATION  ACCESS:      39435  HIT:       8186  MISS:      31249  iACCESS:          0  iHIT:          0  iMISS:          0  dACCESS:          0  dHIT:          0  dMISS:          0  itACCESS:      11069  itHIT:       3308  itMISS:       7761  dtACCESS:      28366  dtHIT:       4878  dtMISS:      23488
LLC PREFETCH  REQUESTED:          0  ISSUED:          0  CROSSED:          0  USEFUL:          0  USELESS:          0
LLC AVERAGE iMISS LATENCY: 46.3489 cycles
LLC AVERAGE dMISS LATENCY: 107.319 cycles
LLC AVERAGE itMISS LATENCY: 1.54113 cycles
LLC AVERAGE dtMISS LATENCY: 4.76693 cycles
LLC PAGE CROSSINGS (TLB HIT):         0 
LLC PAGE CROSSINGS (TLB MISS):         0 
LLC AVERAGE MISS LATENCY: 159.976 cycles

PageTableWalker TOTAL       ACCESS:      87123  
PageTableWalker AVERAGE LATENCY: 4.22985 cycles
PageTableWalker TOTAL LATENCY: 368517 cycles

DRAM Statistics
Channel 0
 RQ ROW_BUFFER_HIT:     235830
  ROW_BUFFER_MISS:     634807
 AVG DBUS CONGESTED CYCLE:    3.63618
 WQ ROW_BUFFER_HIT:      21652
  ROW_BUFFER_MISS:      30562  FULL:          0

