last_page:0x200000000000000
VMEM_RES_CAP:0x100000
PAGE_SIZE:4096
LOG2_PAGE_SIZE:12
LOG2_PAGE_TABLE_SIZE:9
page_table_levels:5
WARNING: physical memory size is smaller than virtual memory size
FDiP enabled with aggresivity 16

*** ChampSim Multicore Out-of-Order Simulator ***

Warmup Instructions: 50000000
Simulation Instructions: 100000000
Number of CPUs: 1
Small page size: 4096
Large page size: 2097152

CPU 0 Bimodal branch predictor
Basic BTB sets: 1024 ways: 8 indirect buffer size: 4096 RAS size: 64
Instruction page size distrubution: 0
Loading instruction page size distribution from /home/bsc/bsc018186/scratch/itp_asplos25_AE/dump/srv623_ap.pdst
Data page size distrubution: 0
Loading data page size distribution from /home/bsc/bsc018186/scratch/itp_asplos25_AE/dump/srv623_ap.pdst
cpu0_L2C IP-based stride prefetcher
cpu0_L1D next line prefetcher
cpu0_L1I next line prefetcher
Off-chip DRAM Size: 4 GiB Channels: 1 Width: 64-bit Data Rate: 3200 MT/s
Heartbeat CPU 0 instructions: 10000002 cycles: 2500362 heartbeat IPC: 3.99943 cumulative IPC: 3.99943 (Simulation time: 0 hr 0 min 35 sec) 
Heartbeat CPU 0 instructions: 20000003 cycles: 5000533 heartbeat IPC: 3.99973 cumulative IPC: 3.99958 (Simulation time: 0 hr 1 min 12 sec) 
Heartbeat CPU 0 instructions: 30000003 cycles: 7500692 heartbeat IPC: 3.99975 cumulative IPC: 3.99964 (Simulation time: 0 hr 1 min 56 sec) 
Heartbeat CPU 0 instructions: 40000002 cycles: 10000983 heartbeat IPC: 3.99954 cumulative IPC: 3.99961 (Simulation time: 0 hr 2 min 38 sec) 
Heartbeat CPU 0 instructions: 50000003 cycles: 12501290 heartbeat IPC: 3.99951 cumulative IPC: 3.99959 (Simulation time: 0 hr 3 min 16 sec) 
Warmup finished CPU 0 instructions: 50000003 cycles: 12501291 cumulative IPC: 3.99959 (Simulation time: 0 hr 3 min 16 sec) 

Warmup complete CPU 0 instructions: 50000003 cycles: 12501291 (Simulation time: 0 hr 3 min 16 sec) 

Heartbeat CPU 0 instructions: 60000000 cycles: 26571006 heartbeat IPC: 0.710747 cumulative IPC: 0.710747 (Simulation time: 0 hr 4 min 16 sec) 
Heartbeat CPU 0 instructions: 70000000 cycles: 41056491 heartbeat IPC: 0.690347 cumulative IPC: 0.700398 (Simulation time: 0 hr 5 min 16 sec) 
Heartbeat CPU 0 instructions: 80000000 cycles: 55842962 heartbeat IPC: 0.676294 cumulative IPC: 0.692175 (Simulation time: 0 hr 6 min 18 sec) 
Heartbeat CPU 0 instructions: 90000000 cycles: 69289261 heartbeat IPC: 0.7437 cumulative IPC: 0.704375 (Simulation time: 0 hr 7 min 17 sec) 
Heartbeat CPU 0 instructions: 100000001 cycles: 83118662 heartbeat IPC: 0.723098 cumulative IPC: 0.708042 (Simulation time: 0 hr 8 min 17 sec) 
*** Reached end of trace: /gpfs/projects/bsc18/MN4/bsc18/romol/ChampSim/traces/qualcomm_srv/srv623_ap.champsimtrace.xz
Heartbeat CPU 0 instructions: 110000003 cycles: 97263114 heartbeat IPC: 0.706992 cumulative IPC: 0.707866 (Simulation time: 0 hr 9 min 18 sec) 
Heartbeat CPU 0 instructions: 120000002 cycles: 111755185 heartbeat IPC: 0.690033 cumulative IPC: 0.705262 (Simulation time: 0 hr 10 min 19 sec) 
Heartbeat CPU 0 instructions: 130000002 cycles: 125314675 heartbeat IPC: 0.737491 cumulative IPC: 0.709136 (Simulation time: 0 hr 11 min 18 sec) 
Heartbeat CPU 0 instructions: 140000000 cycles: 139836707 heartbeat IPC: 0.688609 cumulative IPC: 0.706795 (Simulation time: 0 hr 12 min 20 sec) 
Heartbeat CPU 0 instructions: 150000000 cycles: 153777217 heartbeat IPC: 0.717334 cumulative IPC: 0.707835 (Simulation time: 0 hr 13 min 20 sec) 
Simulation finished CPU 0 instructions: 100000000 cycles: 141275950 cumulative IPC: 0.707835 (Simulation time: 0 hr 13 min 20 sec) 

Simulation complete CPU 0 instructions: 100000000 cycles: 141275950 (Simulation time: 0 hr 13 min 20 sec) 


ChampSim completed all CPUs

Saving instructions large page distribution to /home/bsc/bsc018186/scratch/itp_asplos25_AE/dump/srv623_ap.pdst...
Saving data large page distribution to /home/bsc/bsc018186/scratch/itp_asplos25_AE/dump/srv623_ap.pdst...
=== Simulation ===
CPU 0 runs /gpfs/projects/bsc18/MN4/bsc18/romol/ChampSim/traces/qualcomm_srv/srv623_ap.champsimtrace.xz

Region of Interest Statistics

CPU 0 cumulative IPC: 0.707835 instructions: 100000000 cycles: 141275950
CPU 0 Branch Prediction Accuracy: 83.4241% MPKI: 29.6363 Average ROB Occupancy at Mispredict: 12.3371
Branch type MPKI
BRANCH_DIRECT_JUMP: 1.01919
BRANCH_INDIRECT: 15.269
BRANCH_CONDITIONAL: 9.68141
BRANCH_DIRECT_CALL: 1.8327
BRANCH_INDIRECT_CALL: 0.503631
BRANCH_RETURN: 1.33037

Instructions large pages: 0
Instructions small pages: 11492
Large page distribution for instructions: 0%

Data large pages: 0
Data small pages: 10479
Large page distribution for data: 0%

cpu0_L1I TOTAL       ACCESS:   35114010  HIT:   26771919  MISS:    8342091  iACCESS:   35114010  iHIT:   26771919  iMISS:    8342091  dACCESS:          0  dHIT:          0  dMISS:          0  itACCESS:          0  itHIT:          0  itMISS:          0  dtACCESS:          0  dtHIT:          0  dtMISS:          0
cpu0_L1I LOAD         ACCESS:   10303893  HIT:    7959582  MISS:    2344311  iACCESS:   10303893  iHIT:    7959582  iMISS:    2344311  dACCESS:          0  dHIT:          0  dMISS:          0  itACCESS:          0  itHIT:          0  itMISS:          0  dtACCESS:          0  dtHIT:          0  dtMISS:          0
cpu0_L1I RFO          ACCESS:          0  HIT:          0  MISS:          0  iACCESS:          0  iHIT:          0  iMISS:          0  dACCESS:          0  dHIT:          0  dMISS:          0  itACCESS:          0  itHIT:          0  itMISS:          0  dtACCESS:          0  dtHIT:          0  dtMISS:          0
cpu0_L1I PREFETCH     ACCESS:   24810117  HIT:   18812337  MISS:    5997780  iACCESS:   24810117  iHIT:   18812337  iMISS:    5997780  dACCESS:          0  dHIT:          0  dMISS:          0  itACCESS:          0  itHIT:          0  itMISS:          0  dtACCESS:          0  dtHIT:          0  dtMISS:          0
cpu0_L1I WRITE        ACCESS:          0  HIT:          0  MISS:          0  iACCESS:          0  iHIT:          0  iMISS:          0  dACCESS:          0  dHIT:          0  dMISS:          0  itACCESS:          0  itHIT:          0  itMISS:          0  dtACCESS:          0  dtHIT:          0  dtMISS:          0
cpu0_L1I TRANSLATION  ACCESS:          0  HIT:          0  MISS:          0  iACCESS:          0  iHIT:          0  iMISS:          0  dACCESS:          0  dHIT:          0  dMISS:          0  itACCESS:          0  itHIT:          0  itMISS:          0  dtACCESS:          0  dtHIT:          0  dtMISS:          0
cpu0_L1I PREFETCH  REQUESTED:   27175085  ISSUED:   27173701  CROSSED:          0  USEFUL:    1894293  USELESS:     625487
cpu0_L1I AVERAGE iMISS LATENCY: 13.6955 cycles
cpu0_L1I AVERAGE dMISS LATENCY: 0 cycles
cpu0_L1I AVERAGE itMISS LATENCY: 0 cycles
cpu0_L1I AVERAGE dtMISS LATENCY: 0 cycles
cpu0_L1I PAGE CROSSINGS (TLB HIT):         0 
cpu0_L1I PAGE CROSSINGS (TLB MISS):         0 
cpu0_L1I AVERAGE MISS LATENCY: 13.6955 cycles
cpu0_ITLB TOTAL       ACCESS:   29076511  HIT:   27105870  MISS:    1970641  iACCESS:   29076511  iHIT:   27105870  iMISS:    1970641  dACCESS:          0  dHIT:          0  dMISS:          0  itACCESS:          0  itHIT:          0  itMISS:          0  dtACCESS:          0  dtHIT:          0  dtMISS:          0
cpu0_ITLB LOAD         ACCESS:   29076511  HIT:   27105870  MISS:    1970641  iACCESS:   29076511  iHIT:   27105870  iMISS:    1970641  dACCESS:          0  dHIT:          0  dMISS:          0  itACCESS:          0  itHIT:          0  itMISS:          0  dtACCESS:          0  dtHIT:          0  dtMISS:          0
cpu0_ITLB RFO          ACCESS:          0  HIT:          0  MISS:          0  iACCESS:          0  iHIT:          0  iMISS:          0  dACCESS:          0  dHIT:          0  dMISS:          0  itACCESS:          0  itHIT:          0  itMISS:          0  dtACCESS:          0  dtHIT:          0  dtMISS:          0
cpu0_ITLB PREFETCH     ACCESS:          0  HIT:          0  MISS:          0  iACCESS:          0  iHIT:          0  iMISS:          0  dACCESS:          0  dHIT:          0  dMISS:          0  itACCESS:          0  itHIT:          0  itMISS:          0  dtACCESS:          0  dtHIT:          0  dtMISS:          0
cpu0_ITLB WRITE        ACCESS:          0  HIT:          0  MISS:          0  iACCESS:          0  iHIT:          0  iMISS:          0  dACCESS:          0  dHIT:          0  dMISS:          0  itACCESS:          0  itHIT:          0  itMISS:          0  dtACCESS:          0  dtHIT:          0  dtMISS:          0
cpu0_ITLB TRANSLATION  ACCESS:          0  HIT:          0  MISS:          0  iACCESS:          0  iHIT:          0  iMISS:          0  dACCESS:          0  dHIT:          0  dMISS:          0  itACCESS:          0  itHIT:          0  itMISS:          0  dtACCESS:          0  dtHIT:          0  dtMISS:          0
cpu0_ITLB PREFETCH  REQUESTED:          0  ISSUED:          0  CROSSED:          0  USEFUL:     321177  USELESS:      66553
cpu0_ITLB AVERAGE iMISS LATENCY: 3.01164 cycles
cpu0_ITLB AVERAGE dMISS LATENCY: 0 cycles
cpu0_ITLB AVERAGE itMISS LATENCY: 0 cycles
cpu0_ITLB AVERAGE dtMISS LATENCY: 0 cycles
cpu0_ITLB PAGE CROSSINGS (TLB HIT):         0 
cpu0_ITLB PAGE CROSSINGS (TLB MISS):         0 
cpu0_ITLB AVERAGE MISS LATENCY: 3.01164 cycles
cpu0_DTLB TOTAL       ACCESS:   27727663  HIT:   25669355  MISS:    2058308  iACCESS:          0  iHIT:          0  iMISS:          0  dACCESS:   27727663  dHIT:   25669355  dMISS:    2058308  itACCESS:          0  itHIT:          0  itMISS:          0  dtACCESS:          0  dtHIT:          0  dtMISS:          0
cpu0_DTLB LOAD         ACCESS:   27727663  HIT:   25669355  MISS:    2058308  iACCESS:          0  iHIT:          0  iMISS:          0  dACCESS:   27727663  dHIT:   25669355  dMISS:    2058308  itACCESS:          0  itHIT:          0  itMISS:          0  dtACCESS:          0  dtHIT:          0  dtMISS:          0
cpu0_DTLB RFO          ACCESS:          0  HIT:          0  MISS:          0  iACCESS:          0  iHIT:          0  iMISS:          0  dACCESS:          0  dHIT:          0  dMISS:          0  itACCESS:          0  itHIT:          0  itMISS:          0  dtACCESS:          0  dtHIT:          0  dtMISS:          0
cpu0_DTLB PREFETCH     ACCESS:          0  HIT:          0  MISS:          0  iACCESS:          0  iHIT:          0  iMISS:          0  dACCESS:          0  dHIT:          0  dMISS:          0  itACCESS:          0  itHIT:          0  itMISS:          0  dtACCESS:          0  dtHIT:          0  dtMISS:          0
cpu0_DTLB WRITE        ACCESS:          0  HIT:          0  MISS:          0  iACCESS:          0  iHIT:          0  iMISS:          0  dACCESS:          0  dHIT:          0  dMISS:          0  itACCESS:          0  itHIT:          0  itMISS:          0  dtACCESS:          0  dtHIT:          0  dtMISS:          0
cpu0_DTLB TRANSLATION  ACCESS:          0  HIT:          0  MISS:          0  iACCESS:          0  iHIT:          0  iMISS:          0  dACCESS:          0  dHIT:          0  dMISS:          0  itACCESS:          0  itHIT:          0  itMISS:          0  dtACCESS:          0  dtHIT:          0  dtMISS:          0
cpu0_DTLB PREFETCH  REQUESTED:          0  ISSUED:          0  CROSSED:          0  USEFUL:          0  USELESS:          0
cpu0_DTLB AVERAGE iMISS LATENCY: 0 cycles
cpu0_DTLB AVERAGE dMISS LATENCY: 10.1328 cycles
cpu0_DTLB AVERAGE itMISS LATENCY: 0 cycles
cpu0_DTLB AVERAGE dtMISS LATENCY: 0 cycles
cpu0_DTLB PAGE CROSSINGS (TLB HIT):         0 
cpu0_DTLB PAGE CROSSINGS (TLB MISS):         0 
cpu0_DTLB AVERAGE MISS LATENCY: 10.1328 cycles
cpu0_STLB TOTAL       ACCESS:    1613994  HIT:    1440834  MISS:     173160  iACCESS:     387749  iHIT:     325054  iMISS:      62695  dACCESS:    1226245  dHIT:    1115780  dMISS:     110465  itACCESS:          0  itHIT:          0  itMISS:          0  dtACCESS:          0  dtHIT:          0  dtMISS:          0
cpu0_STLB LOAD         ACCESS:    1613994  HIT:    1440834  MISS:     173160  iACCESS:     387749  iHIT:     325054  iMISS:      62695  dACCESS:    1226245  dHIT:    1115780  dMISS:     110465  itACCESS:          0  itHIT:          0  itMISS:          0  dtACCESS:          0  dtHIT:          0  dtMISS:          0
cpu0_STLB RFO          ACCESS:          0  HIT:          0  MISS:          0  iACCESS:          0  iHIT:          0  iMISS:          0  dACCESS:          0  dHIT:          0  dMISS:          0  itACCESS:          0  itHIT:          0  itMISS:          0  dtACCESS:          0  dtHIT:          0  dtMISS:          0
cpu0_STLB PREFETCH     ACCESS:          0  HIT:          0  MISS:          0  iACCESS:          0  iHIT:          0  iMISS:          0  dACCESS:          0  dHIT:          0  dMISS:          0  itACCESS:          0  itHIT:          0  itMISS:          0  dtACCESS:          0  dtHIT:          0  dtMISS:          0
cpu0_STLB WRITE        ACCESS:          0  HIT:          0  MISS:          0  iACCESS:          0  iHIT:          0  iMISS:          0  dACCESS:          0  dHIT:          0  dMISS:          0  itACCESS:          0  itHIT:          0  itMISS:          0  dtACCESS:          0  dtHIT:          0  dtMISS:          0
cpu0_STLB TRANSLATION  ACCESS:          0  HIT:          0  MISS:          0  iACCESS:          0  iHIT:          0  iMISS:          0  dACCESS:          0  dHIT:          0  dMISS:          0  itACCESS:          0  itHIT:          0  itMISS:          0  dtACCESS:          0  dtHIT:          0  dtMISS:          0
cpu0_STLB PREFETCH  REQUESTED:          0  ISSUED:          0  CROSSED:          0  USEFUL:          0  USELESS:          0
cpu0_STLB AVERAGE iMISS LATENCY: 16.5599 cycles
cpu0_STLB AVERAGE dMISS LATENCY: 64.0086 cycles
cpu0_STLB AVERAGE itMISS LATENCY: 0 cycles
cpu0_STLB AVERAGE dtMISS LATENCY: 0 cycles
cpu0_STLB PAGE CROSSINGS (TLB HIT):         0 
cpu0_STLB PAGE CROSSINGS (TLB MISS):         0 
cpu0_STLB AVERAGE MISS LATENCY: 80.5685 cycles
cpu0_L1D TOTAL       ACCESS:   41498811  HIT:   38058462  MISS:    3440349  iACCESS:          0  iHIT:          0  iMISS:          0  dACCESS:   41264707  dHIT:   38037124  dMISS:    3227583  itACCESS:      68213  itHIT:       9958  itMISS:      58255  dtACCESS:     165891  dtHIT:      11380  dtMISS:     154511
cpu0_L1D LOAD         ACCESS:   18920090  HIT:   17446303  MISS:    1473787  iACCESS:          0  iHIT:          0  iMISS:          0  dACCESS:   18920090  dHIT:   17446303  dMISS:    1473787  itACCESS:          0  itHIT:          0  itMISS:          0  dtACCESS:          0  dtHIT:          0  dtMISS:          0
cpu0_L1D RFO          ACCESS:          0  HIT:          0  MISS:          0  iACCESS:          0  iHIT:          0  iMISS:          0  dACCESS:          0  dHIT:          0  dMISS:          0  itACCESS:          0  itHIT:          0  itMISS:          0  dtACCESS:          0  dtHIT:          0  dtMISS:          0
cpu0_L1D PREFETCH     ACCESS:   12173460  HIT:   10842356  MISS:    1331104  iACCESS:          0  iHIT:          0  iMISS:          0  dACCESS:   12173460  dHIT:   10842356  dMISS:    1331104  itACCESS:          0  itHIT:          0  itMISS:          0  dtACCESS:          0  dtHIT:          0  dtMISS:          0
cpu0_L1D WRITE        ACCESS:   10171157  HIT:    9748465  MISS:     422692  iACCESS:          0  iHIT:          0  iMISS:          0  dACCESS:   10171157  dHIT:    9748465  dMISS:     422692  itACCESS:          0  itHIT:          0  itMISS:          0  dtACCESS:          0  dtHIT:          0  dtMISS:          0
cpu0_L1D TRANSLATION  ACCESS:     234104  HIT:      21338  MISS:     212766  iACCESS:          0  iHIT:          0  iMISS:          0  dACCESS:          0  dHIT:          0  dMISS:          0  itACCESS:      68213  itHIT:       9958  itMISS:      58255  dtACCESS:     165891  dtHIT:      11380  dtMISS:     154511
cpu0_L1D PREFETCH  REQUESTED:   18920090  ISSUED:   17040484  CROSSED:          0  USEFUL:     304203  USELESS:     695653
cpu0_L1D AVERAGE iMISS LATENCY: 0 cycles
cpu0_L1D AVERAGE dMISS LATENCY: 33.3315 cycles
cpu0_L1D AVERAGE itMISS LATENCY: 0.676608 cycles
cpu0_L1D AVERAGE dtMISS LATENCY: 2.47244 cycles
cpu0_L1D PAGE CROSSINGS (TLB HIT):         0 
cpu0_L1D PAGE CROSSINGS (TLB MISS):         0 
cpu0_L1D AVERAGE MISS LATENCY: 36.4805 cycles
cpu0_L2C TOTAL       ACCESS:    6903948  HIT:    1652285  MISS:    5251663  iACCESS:    3269385  iHIT:     824469  iMISS:    2444916  dACCESS:    3430502  dHIT:     705318  dMISS:    2725184  itACCESS:      58255  itHIT:      43663  itMISS:      14592  dtACCESS:     145806  dtHIT:      78835  dtMISS:      66971
cpu0_L2C LOAD         ACCESS:    1706782  HIT:     299245  MISS:    1407537  iACCESS:     782809  iHIT:     143487  iMISS:     639322  dACCESS:     923973  dHIT:     155758  dMISS:     768215  itACCESS:          0  itHIT:          0  itMISS:          0  dtACCESS:          0  dtHIT:          0  dtMISS:          0
cpu0_L2C RFO          ACCESS:     156401  HIT:      52637  MISS:     103764  iACCESS:          0  iHIT:          0  iMISS:          0  dACCESS:     156401  dHIT:      52637  dMISS:     103764  itACCESS:          0  itHIT:          0  itMISS:          0  dtACCESS:          0  dtHIT:          0  dtMISS:          0
cpu0_L2C PREFETCH     ACCESS:    4554139  HIT:    1039360  MISS:    3514779  iACCESS:    2486576  iHIT:     680982  iMISS:    1805594  dACCESS:    2067563  dHIT:     358378  dMISS:    1709185  itACCESS:          0  itHIT:          0  itMISS:          0  dtACCESS:          0  dtHIT:          0  dtMISS:          0
cpu0_L2C WRITE        ACCESS:     282565  HIT:     138545  MISS:     144020  iACCESS:          0  iHIT:          0  iMISS:          0  dACCESS:     282565  dHIT:     138545  dMISS:     144020  itACCESS:          0  itHIT:          0  itMISS:          0  dtACCESS:          0  dtHIT:          0  dtMISS:          0
cpu0_L2C TRANSLATION  ACCESS:     204061  HIT:     122498  MISS:      81563  iACCESS:          0  iHIT:          0  iMISS:          0  dACCESS:          0  dHIT:          0  dMISS:          0  itACCESS:      58255  itHIT:      43663  itMISS:      14592  dtACCESS:     145806  dtHIT:      78835  dtMISS:      66971
cpu0_L2C PREFETCH  REQUESTED:    1317960  ISSUED:    1317960  CROSSED:          0  USEFUL:     380052  USELESS:     369801
cpu0_L2C AVERAGE iMISS LATENCY: 16.0582 cycles
cpu0_L2C AVERAGE dMISS LATENCY: 25.4252 cycles
cpu0_L2C AVERAGE itMISS LATENCY: 0.340401 cycles
cpu0_L2C AVERAGE dtMISS LATENCY: 1.35555 cycles
cpu0_L2C PAGE CROSSINGS (TLB HIT):         0 
cpu0_L2C PAGE CROSSINGS (TLB MISS):         0 
cpu0_L2C AVERAGE MISS LATENCY: 43.1793 cycles
LLC TOTAL       ACCESS:    5127299  HIT:    4279479  MISS:     847820  iACCESS:    2389233  iHIT:    2125760  iMISS:     263473  dACCESS:    2656503  dHIT:    2113764  dMISS:     542739  itACCESS:      14592  itHIT:       5853  itMISS:       8739  dtACCESS:      66971  dtHIT:      34102  dtMISS:      32869
LLC LOAD         ACCESS:    1406037  HIT:    1220470  MISS:     185567  iACCESS:     638165  iHIT:     582813  iMISS:      55352  dACCESS:     767872  dHIT:     637657  dMISS:     130215  itACCESS:          0  itHIT:          0  itMISS:          0  dtACCESS:          0  dtHIT:          0  dtMISS:          0
LLC RFO          ACCESS:     103760  HIT:      67504  MISS:      36256  iACCESS:          0  iHIT:          0  iMISS:          0  dACCESS:     103760  dHIT:      67504  dMISS:      36256  itACCESS:          0  itHIT:          0  itMISS:          0  dtACCESS:          0  dtHIT:          0  dtMISS:          0
LLC PREFETCH     ACCESS:    3403339  HIT:    2827503  MISS:     575836  iACCESS:    1751068  iHIT:    1542947  iMISS:     208121  dACCESS:    1652271  dHIT:    1284556  dMISS:     367715  itACCESS:          0  itHIT:          0  itMISS:          0  dtACCESS:          0  dtHIT:          0  dtMISS:          0
LLC WRITE        ACCESS:     132600  HIT:     124047  MISS:       8553  iACCESS:          0  iHIT:          0  iMISS:          0  dACCESS:     132600  dHIT:     124047  dMISS:       8553  itACCESS:          0  itHIT:          0  itMISS:          0  dtACCESS:          0  dtHIT:          0  dtMISS:          0
LLC TRANSLATION  ACCESS:      81563  HIT:      39955  MISS:      41608  iACCESS:          0  iHIT:          0  iMISS:          0  dACCESS:          0  dHIT:          0  dMISS:          0  itACCESS:      14592  itHIT:       5853  itMISS:       8739  dtACCESS:      66971  dtHIT:      34102  dtMISS:      32869
LLC PREFETCH  REQUESTED:          0  ISSUED:          0  CROSSED:          0  USEFUL:          0  USELESS:          0
LLC AVERAGE iMISS LATENCY: 45.0816 cycles
LLC AVERAGE dMISS LATENCY: 100.008 cycles
LLC AVERAGE itMISS LATENCY: 1.7719 cycles
LLC AVERAGE dtMISS LATENCY: 6.85856 cycles
LLC PAGE CROSSINGS (TLB HIT):         0 
LLC PAGE CROSSINGS (TLB MISS):         0 
LLC AVERAGE MISS LATENCY: 153.72 cycles

PageTableWalker TOTAL       ACCESS:      88898  
PageTableWalker AVERAGE LATENCY: 4.49331 cycles
PageTableWalker TOTAL LATENCY: 399446 cycles

DRAM Statistics
Channel 0
 RQ ROW_BUFFER_HIT:     246864
  ROW_BUFFER_MISS:     592355
 AVG DBUS CONGESTED CYCLE:    3.62247
 WQ ROW_BUFFER_HIT:      16666
  ROW_BUFFER_MISS:      20829  FULL:          0

