last_page:0x200000000000000
VMEM_RES_CAP:0x100000
PAGE_SIZE:4096
LOG2_PAGE_SIZE:12
LOG2_PAGE_TABLE_SIZE:9
page_table_levels:5
WARNING: physical memory size is smaller than virtual memory size
FDiP enabled with aggresivity 16

*** ChampSim Multicore Out-of-Order Simulator ***

Warmup Instructions: 50000000
Simulation Instructions: 100000000
Number of CPUs: 1
Small page size: 4096
Large page size: 2097152

CPU 0 Bimodal branch predictor
Basic BTB sets: 1024 ways: 8 indirect buffer size: 4096 RAS size: 64
Instruction page size distrubution: 0
Loading instruction page size distribution from /home/bsc/bsc018186/scratch/itp_asplos25_AE/dump/srv641_ap.pdst
Data page size distrubution: 0
Loading data page size distribution from /home/bsc/bsc018186/scratch/itp_asplos25_AE/dump/srv641_ap.pdst
cpu0_L2C IP-based stride prefetcher
cpu0_L1D next line prefetcher
cpu0_STLB using iTP with max lru@8
cpu0_STLB using iTP with instr@0 and data@2
Init sat counter with 3 bits (max:50).
cpu0_L1I next line prefetcher
Off-chip DRAM Size: 4 GiB Channels: 1 Width: 64-bit Data Rate: 3200 MT/s
Heartbeat CPU 0 instructions: 10000000 cycles: 2500176 heartbeat IPC: 3.99972 cumulative IPC: 3.99972 (Simulation time: 0 hr 0 min 38 sec) 
Heartbeat CPU 0 instructions: 20000002 cycles: 5000247 heartbeat IPC: 3.99989 cumulative IPC: 3.99981 (Simulation time: 0 hr 1 min 17 sec) 
Heartbeat CPU 0 instructions: 30000003 cycles: 7500255 heartbeat IPC: 3.99999 cumulative IPC: 3.99987 (Simulation time: 0 hr 1 min 58 sec) 
Heartbeat CPU 0 instructions: 40000001 cycles: 10000298 heartbeat IPC: 3.99994 cumulative IPC: 3.99989 (Simulation time: 0 hr 2 min 38 sec) 
Heartbeat CPU 0 instructions: 50000001 cycles: 12500345 heartbeat IPC: 3.99993 cumulative IPC: 3.99989 (Simulation time: 0 hr 3 min 19 sec) 
Warmup finished CPU 0 instructions: 50000001 cycles: 12500346 cumulative IPC: 3.99989 (Simulation time: 0 hr 3 min 19 sec) 

Warmup complete CPU 0 instructions: 50000001 cycles: 12500346 (Simulation time: 0 hr 3 min 19 sec) 

Heartbeat CPU 0 instructions: 60000003 cycles: 30943380 heartbeat IPC: 0.542211 cumulative IPC: 0.542211 (Simulation time: 0 hr 4 min 28 sec) 
Heartbeat CPU 0 instructions: 70000002 cycles: 48979629 heartbeat IPC: 0.554439 cumulative IPC: 0.548257 (Simulation time: 0 hr 5 min 37 sec) 
Heartbeat CPU 0 instructions: 80000002 cycles: 67247789 heartbeat IPC: 0.547401 cumulative IPC: 0.547971 (Simulation time: 0 hr 6 min 47 sec) 
Heartbeat CPU 0 instructions: 90000002 cycles: 85275815 heartbeat IPC: 0.554692 cumulative IPC: 0.549636 (Simulation time: 0 hr 7 min 57 sec) 
Heartbeat CPU 0 instructions: 100000001 cycles: 103161751 heartbeat IPC: 0.559099 cumulative IPC: 0.551503 (Simulation time: 0 hr 9 min 8 sec) 
*** Reached end of trace: /gpfs/projects/bsc18/MN4/bsc18/romol/ChampSim/traces/qualcomm_srv/srv641_ap.champsimtrace.xz
Heartbeat CPU 0 instructions: 110000000 cycles: 121741773 heartbeat IPC: 0.538213 cumulative IPC: 0.549243 (Simulation time: 0 hr 10 min 19 sec) 
Heartbeat CPU 0 instructions: 120000002 cycles: 139810328 heartbeat IPC: 0.553448 cumulative IPC: 0.54984 (Simulation time: 0 hr 11 min 30 sec) 
Heartbeat CPU 0 instructions: 130000002 cycles: 158059035 heartbeat IPC: 0.547985 cumulative IPC: 0.549607 (Simulation time: 0 hr 12 min 41 sec) 
Heartbeat CPU 0 instructions: 140000000 cycles: 177029476 heartbeat IPC: 0.527136 cumulative IPC: 0.547016 (Simulation time: 0 hr 13 min 54 sec) 
Heartbeat CPU 0 instructions: 150000003 cycles: 194821605 heartbeat IPC: 0.562047 cumulative IPC: 0.548483 (Simulation time: 0 hr 15 min 4 sec) 
Simulation finished CPU 0 instructions: 100000002 cycles: 182321260 cumulative IPC: 0.548483 (Simulation time: 0 hr 15 min 4 sec) 

Simulation complete CPU 0 instructions: 100000002 cycles: 182321260 (Simulation time: 0 hr 15 min 4 sec) 


ChampSim completed all CPUs

Saving instructions large page distribution to /home/bsc/bsc018186/scratch/itp_asplos25_AE/dump/srv641_ap.pdst...
Saving data large page distribution to /home/bsc/bsc018186/scratch/itp_asplos25_AE/dump/srv641_ap.pdst...
=== Simulation ===
CPU 0 runs /gpfs/projects/bsc18/MN4/bsc18/romol/ChampSim/traces/qualcomm_srv/srv641_ap.champsimtrace.xz

Region of Interest Statistics

CPU 0 cumulative IPC: 0.548483 instructions: 100000002 cycles: 182321260
CPU 0 Branch Prediction Accuracy: 80.3626% MPKI: 35.4016 Average ROB Occupancy at Mispredict: 10.5162
Branch type MPKI
BRANCH_DIRECT_JUMP: 1.28661
BRANCH_INDIRECT: 17.856
BRANCH_CONDITIONAL: 11.4268
BRANCH_DIRECT_CALL: 2.414
BRANCH_INDIRECT_CALL: 0.69097
BRANCH_RETURN: 1.72728

Instructions large pages: 0
Instructions small pages: 1188
Large page distribution for instructions: 0%

Data large pages: 0
Data small pages: 5766
Large page distribution for data: 0%

cpu0_L1I TOTAL       ACCESS:   35669689  HIT:   27303263  MISS:    8366426  iACCESS:   35669689  iHIT:   27303263  iMISS:    8366426  dACCESS:          0  dHIT:          0  dMISS:          0  itACCESS:          0  itHIT:          0  itMISS:          0  dtACCESS:          0  dtHIT:          0  dtMISS:          0
cpu0_L1I LOAD         ACCESS:   10247568  HIT:    7948340  MISS:    2299228  iACCESS:   10247568  iHIT:    7948340  iMISS:    2299228  dACCESS:          0  dHIT:          0  dMISS:          0  itACCESS:          0  itHIT:          0  itMISS:          0  dtACCESS:          0  dtHIT:          0  dtMISS:          0
cpu0_L1I RFO          ACCESS:          0  HIT:          0  MISS:          0  iACCESS:          0  iHIT:          0  iMISS:          0  dACCESS:          0  dHIT:          0  dMISS:          0  itACCESS:          0  itHIT:          0  itMISS:          0  dtACCESS:          0  dtHIT:          0  dtMISS:          0
cpu0_L1I PREFETCH     ACCESS:   25422121  HIT:   19354923  MISS:    6067198  iACCESS:   25422121  iHIT:   19354923  iMISS:    6067198  dACCESS:          0  dHIT:          0  dMISS:          0  itACCESS:          0  itHIT:          0  itMISS:          0  dtACCESS:          0  dtHIT:          0  dtMISS:          0
cpu0_L1I WRITE        ACCESS:          0  HIT:          0  MISS:          0  iACCESS:          0  iHIT:          0  iMISS:          0  dACCESS:          0  dHIT:          0  dMISS:          0  itACCESS:          0  itHIT:          0  itMISS:          0  dtACCESS:          0  dtHIT:          0  dtMISS:          0
cpu0_L1I TRANSLATION  ACCESS:          0  HIT:          0  MISS:          0  iACCESS:          0  iHIT:          0  iMISS:          0  dACCESS:          0  dHIT:          0  dMISS:          0  itACCESS:          0  itHIT:          0  itMISS:          0  dtACCESS:          0  dtHIT:          0  dtMISS:          0
cpu0_L1I PREFETCH  REQUESTED:   27593465  ISSUED:   27592361  CROSSED:          0  USEFUL:    1970563  USELESS:     660314
cpu0_L1I AVERAGE iMISS LATENCY: 18.5692 cycles
cpu0_L1I AVERAGE dMISS LATENCY: 0 cycles
cpu0_L1I AVERAGE itMISS LATENCY: 0 cycles
cpu0_L1I AVERAGE dtMISS LATENCY: 0 cycles
cpu0_L1I PAGE CROSSINGS (TLB HIT):         0 
cpu0_L1I PAGE CROSSINGS (TLB MISS):         0 
cpu0_L1I AVERAGE MISS LATENCY: 18.5692 cycles
cpu0_ITLB TOTAL       ACCESS:   29862406  HIT:   27916463  MISS:    1945943  iACCESS:   29862406  iHIT:   27916463  iMISS:    1945943  dACCESS:          0  dHIT:          0  dMISS:          0  itACCESS:          0  itHIT:          0  itMISS:          0  dtACCESS:          0  dtHIT:          0  dtMISS:          0
cpu0_ITLB LOAD         ACCESS:   29862406  HIT:   27916463  MISS:    1945943  iACCESS:   29862406  iHIT:   27916463  iMISS:    1945943  dACCESS:          0  dHIT:          0  dMISS:          0  itACCESS:          0  itHIT:          0  itMISS:          0  dtACCESS:          0  dtHIT:          0  dtMISS:          0
cpu0_ITLB RFO          ACCESS:          0  HIT:          0  MISS:          0  iACCESS:          0  iHIT:          0  iMISS:          0  dACCESS:          0  dHIT:          0  dMISS:          0  itACCESS:          0  itHIT:          0  itMISS:          0  dtACCESS:          0  dtHIT:          0  dtMISS:          0
cpu0_ITLB PREFETCH     ACCESS:          0  HIT:          0  MISS:          0  iACCESS:          0  iHIT:          0  iMISS:          0  dACCESS:          0  dHIT:          0  dMISS:          0  itACCESS:          0  itHIT:          0  itMISS:          0  dtACCESS:          0  dtHIT:          0  dtMISS:          0
cpu0_ITLB WRITE        ACCESS:          0  HIT:          0  MISS:          0  iACCESS:          0  iHIT:          0  iMISS:          0  dACCESS:          0  dHIT:          0  dMISS:          0  itACCESS:          0  itHIT:          0  itMISS:          0  dtACCESS:          0  dtHIT:          0  dtMISS:          0
cpu0_ITLB TRANSLATION  ACCESS:          0  HIT:          0  MISS:          0  iACCESS:          0  iHIT:          0  iMISS:          0  dACCESS:          0  dHIT:          0  dMISS:          0  itACCESS:          0  itHIT:          0  itMISS:          0  dtACCESS:          0  dtHIT:          0  dtMISS:          0
cpu0_ITLB PREFETCH  REQUESTED:          0  ISSUED:          0  CROSSED:          0  USEFUL:     330585  USELESS:      62216
cpu0_ITLB AVERAGE iMISS LATENCY: 2.72535 cycles
cpu0_ITLB AVERAGE dMISS LATENCY: 0 cycles
cpu0_ITLB AVERAGE itMISS LATENCY: 0 cycles
cpu0_ITLB AVERAGE dtMISS LATENCY: 0 cycles
cpu0_ITLB PAGE CROSSINGS (TLB HIT):         0 
cpu0_ITLB PAGE CROSSINGS (TLB MISS):         0 
cpu0_ITLB AVERAGE MISS LATENCY: 2.72535 cycles
cpu0_DTLB TOTAL       ACCESS:   28125953  HIT:   26154264  MISS:    1971689  iACCESS:          0  iHIT:          0  iMISS:          0  dACCESS:   28125953  dHIT:   26154264  dMISS:    1971689  itACCESS:          0  itHIT:          0  itMISS:          0  dtACCESS:          0  dtHIT:          0  dtMISS:          0
cpu0_DTLB LOAD         ACCESS:   28125953  HIT:   26154264  MISS:    1971689  iACCESS:          0  iHIT:          0  iMISS:          0  dACCESS:   28125953  dHIT:   26154264  dMISS:    1971689  itACCESS:          0  itHIT:          0  itMISS:          0  dtACCESS:          0  dtHIT:          0  dtMISS:          0
cpu0_DTLB RFO          ACCESS:          0  HIT:          0  MISS:          0  iACCESS:          0  iHIT:          0  iMISS:          0  dACCESS:          0  dHIT:          0  dMISS:          0  itACCESS:          0  itHIT:          0  itMISS:          0  dtACCESS:          0  dtHIT:          0  dtMISS:          0
cpu0_DTLB PREFETCH     ACCESS:          0  HIT:          0  MISS:          0  iACCESS:          0  iHIT:          0  iMISS:          0  dACCESS:          0  dHIT:          0  dMISS:          0  itACCESS:          0  itHIT:          0  itMISS:          0  dtACCESS:          0  dtHIT:          0  dtMISS:          0
cpu0_DTLB WRITE        ACCESS:          0  HIT:          0  MISS:          0  iACCESS:          0  iHIT:          0  iMISS:          0  dACCESS:          0  dHIT:          0  dMISS:          0  itACCESS:          0  itHIT:          0  itMISS:          0  dtACCESS:          0  dtHIT:          0  dtMISS:          0
cpu0_DTLB TRANSLATION  ACCESS:          0  HIT:          0  MISS:          0  iACCESS:          0  iHIT:          0  iMISS:          0  dACCESS:          0  dHIT:          0  dMISS:          0  itACCESS:          0  itHIT:          0  itMISS:          0  dtACCESS:          0  dtHIT:          0  dtMISS:          0
cpu0_DTLB PREFETCH  REQUESTED:          0  ISSUED:          0  CROSSED:          0  USEFUL:          0  USELESS:          0
cpu0_DTLB AVERAGE iMISS LATENCY: 0 cycles
cpu0_DTLB AVERAGE dMISS LATENCY: 13.771 cycles
cpu0_DTLB AVERAGE itMISS LATENCY: 0 cycles
cpu0_DTLB AVERAGE dtMISS LATENCY: 0 cycles
cpu0_DTLB PAGE CROSSINGS (TLB HIT):         0 
cpu0_DTLB PAGE CROSSINGS (TLB MISS):         0 
cpu0_DTLB AVERAGE MISS LATENCY: 13.771 cycles
cpu0_STLB TOTAL       ACCESS:    1589584  HIT:    1381797  MISS:     207787  iACCESS:     392819  iHIT:     368621  iMISS:      24198  dACCESS:    1196765  dHIT:    1013176  dMISS:     183589  itACCESS:          0  itHIT:          0  itMISS:          0  dtACCESS:          0  dtHIT:          0  dtMISS:          0
cpu0_STLB LOAD         ACCESS:    1589584  HIT:    1381797  MISS:     207787  iACCESS:     392819  iHIT:     368621  iMISS:      24198  dACCESS:    1196765  dHIT:    1013176  dMISS:     183589  itACCESS:          0  itHIT:          0  itMISS:          0  dtACCESS:          0  dtHIT:          0  dtMISS:          0
cpu0_STLB RFO          ACCESS:          0  HIT:          0  MISS:          0  iACCESS:          0  iHIT:          0  iMISS:          0  dACCESS:          0  dHIT:          0  dMISS:          0  itACCESS:          0  itHIT:          0  itMISS:          0  dtACCESS:          0  dtHIT:          0  dtMISS:          0
cpu0_STLB PREFETCH     ACCESS:          0  HIT:          0  MISS:          0  iACCESS:          0  iHIT:          0  iMISS:          0  dACCESS:          0  dHIT:          0  dMISS:          0  itACCESS:          0  itHIT:          0  itMISS:          0  dtACCESS:          0  dtHIT:          0  dtMISS:          0
cpu0_STLB WRITE        ACCESS:          0  HIT:          0  MISS:          0  iACCESS:          0  iHIT:          0  iMISS:          0  dACCESS:          0  dHIT:          0  dMISS:          0  itACCESS:          0  itHIT:          0  itMISS:          0  dtACCESS:          0  dtHIT:          0  dtMISS:          0
cpu0_STLB TRANSLATION  ACCESS:          0  HIT:          0  MISS:          0  iACCESS:          0  iHIT:          0  iMISS:          0  dACCESS:          0  dHIT:          0  dMISS:          0  itACCESS:          0  itHIT:          0  itMISS:          0  dtACCESS:          0  dtHIT:          0  dtMISS:          0
cpu0_STLB PREFETCH  REQUESTED:          0  ISSUED:          0  CROSSED:          0  USEFUL:          0  USELESS:          0
cpu0_STLB AVERAGE iMISS LATENCY: 10.775 cycles
cpu0_STLB AVERAGE dMISS LATENCY: 84.4613 cycles
cpu0_STLB AVERAGE itMISS LATENCY: 0 cycles
cpu0_STLB AVERAGE dtMISS LATENCY: 0 cycles
cpu0_STLB PAGE CROSSINGS (TLB HIT):         0 
cpu0_STLB PAGE CROSSINGS (TLB MISS):         0 
cpu0_STLB AVERAGE MISS LATENCY: 95.2363 cycles
cpu0_L1D TOTAL       ACCESS:   42800958  HIT:   38709921  MISS:    4091037  iACCESS:          0  iHIT:          0  iMISS:          0  dACCESS:   42524277  dHIT:   38692268  dMISS:    3832009  itACCESS:      27591  itHIT:       2290  itMISS:      25301  dtACCESS:     249090  dtHIT:      15363  dtMISS:     233727
cpu0_L1D LOAD         ACCESS:   19506358  HIT:   17754049  MISS:    1752309  iACCESS:          0  iHIT:          0  iMISS:          0  dACCESS:   19506358  dHIT:   17754049  dMISS:    1752309  itACCESS:          0  itHIT:          0  itMISS:          0  dtACCESS:          0  dtHIT:          0  dtMISS:          0
cpu0_L1D RFO          ACCESS:          0  HIT:          0  MISS:          0  iACCESS:          0  iHIT:          0  iMISS:          0  dACCESS:          0  dHIT:          0  dMISS:          0  itACCESS:          0  itHIT:          0  itMISS:          0  dtACCESS:          0  dtHIT:          0  dtMISS:          0
cpu0_L1D PREFETCH     ACCESS:   12873559  HIT:   11253589  MISS:    1619970  iACCESS:          0  iHIT:          0  iMISS:          0  dACCESS:   12873559  dHIT:   11253589  dMISS:    1619970  itACCESS:          0  itHIT:          0  itMISS:          0  dtACCESS:          0  dtHIT:          0  dtMISS:          0
cpu0_L1D WRITE        ACCESS:   10144360  HIT:    9684630  MISS:     459730  iACCESS:          0  iHIT:          0  iMISS:          0  dACCESS:   10144360  dHIT:    9684630  dMISS:     459730  itACCESS:          0  itHIT:          0  itMISS:          0  dtACCESS:          0  dtHIT:          0  dtMISS:          0
cpu0_L1D TRANSLATION  ACCESS:     276681  HIT:      17653  MISS:     259028  iACCESS:          0  iHIT:          0  iMISS:          0  dACCESS:          0  dHIT:          0  dMISS:          0  itACCESS:      27591  itHIT:       2290  itMISS:      25301  dtACCESS:     249090  dtHIT:      15363  dtMISS:     233727
cpu0_L1D PREFETCH  REQUESTED:   19506358  ISSUED:   17485982  CROSSED:          0  USEFUL:     309302  USELESS:     701041
cpu0_L1D AVERAGE iMISS LATENCY: 0 cycles
cpu0_L1D AVERAGE dMISS LATENCY: 39.0726 cycles
cpu0_L1D AVERAGE itMISS LATENCY: 0.489655 cycles
cpu0_L1D AVERAGE dtMISS LATENCY: 3.71593 cycles
cpu0_L1D PAGE CROSSINGS (TLB HIT):         0 
cpu0_L1D PAGE CROSSINGS (TLB MISS):         0 
cpu0_L1D AVERAGE MISS LATENCY: 43.2781 cycles
cpu0_L2C TOTAL       ACCESS:    7235640  HIT:    1629902  MISS:    5605738  iACCESS:    3366227  iHIT:     853064  iMISS:    2513163  dACCESS:    3613615  dHIT:     637184  dMISS:    2976431  itACCESS:      25301  itHIT:      13198  itMISS:      12103  dtACCESS:     230497  dtHIT:     126456  dtMISS:     104041
cpu0_L2C LOAD         ACCESS:    1717324  HIT:     265115  MISS:    1452209  iACCESS:     772281  iHIT:     144449  iMISS:     627832  dACCESS:     945043  dHIT:     120666  dMISS:     824377  itACCESS:          0  itHIT:          0  itMISS:          0  dtACCESS:          0  dtHIT:          0  dtMISS:          0
cpu0_L2C RFO          ACCESS:     163591  HIT:      42403  MISS:     121188  iACCESS:          0  iHIT:          0  iMISS:          0  dACCESS:     163591  dHIT:      42403  dMISS:     121188  itACCESS:          0  itHIT:          0  itMISS:          0  dtACCESS:          0  dtHIT:          0  dtMISS:          0
cpu0_L2C PREFETCH     ACCESS:    4826784  HIT:    1061427  MISS:    3765357  iACCESS:    2593946  iHIT:     708615  iMISS:    1885331  dACCESS:    2232838  dHIT:     352812  dMISS:    1880026  itACCESS:          0  itHIT:          0  itMISS:          0  dtACCESS:          0  dtHIT:          0  dtMISS:          0
cpu0_L2C WRITE        ACCESS:     272143  HIT:     121303  MISS:     150840  iACCESS:          0  iHIT:          0  iMISS:          0  dACCESS:     272143  dHIT:     121303  dMISS:     150840  itACCESS:          0  itHIT:          0  itMISS:          0  dtACCESS:          0  dtHIT:          0  dtMISS:          0
cpu0_L2C TRANSLATION  ACCESS:     255798  HIT:     139654  MISS:     116144  iACCESS:          0  iHIT:          0  iMISS:          0  dACCESS:          0  dHIT:          0  dMISS:          0  itACCESS:      25301  itHIT:      13198  itMISS:      12103  dtACCESS:     230497  dtHIT:     126456  dtMISS:     104041
cpu0_L2C PREFETCH  REQUESTED:    1475183  ISSUED:    1475177  CROSSED:          0  USEFUL:     402906  USELESS:     429062
cpu0_L2C AVERAGE iMISS LATENCY: 22.2796 cycles
cpu0_L2C AVERAGE dMISS LATENCY: 36.0394 cycles
cpu0_L2C AVERAGE itMISS LATENCY: 0.314432 cycles
cpu0_L2C AVERAGE dtMISS LATENCY: 2.32153 cycles
cpu0_L2C PAGE CROSSINGS (TLB HIT):         0 
cpu0_L2C PAGE CROSSINGS (TLB MISS):         0 
cpu0_L2C AVERAGE MISS LATENCY: 60.9549 cycles
LLC TOTAL       ACCESS:    5429184  HIT:    3899437  MISS:    1529747  iACCESS:    2437617  iHIT:    1905508  iMISS:     532109  dACCESS:    2875423  dHIT:    1946314  dMISS:     929109  itACCESS:      12103  itHIT:       3415  itMISS:       8688  dtACCESS:     104041  dtHIT:      44200  dtMISS:      59841
LLC LOAD         ACCESS:    1445988  HIT:    1109576  MISS:     336412  iACCESS:     626299  iHIT:     517766  iMISS:     108533  dACCESS:     819689  dHIT:     591810  dMISS:     227879  itACCESS:          0  itHIT:          0  itMISS:          0  dtACCESS:          0  dtHIT:          0  dtMISS:          0
LLC RFO          ACCESS:     121150  HIT:      66813  MISS:      54337  iACCESS:          0  iHIT:          0  iMISS:          0  dACCESS:     121150  dHIT:      66813  dMISS:      54337  itACCESS:          0  itHIT:          0  itMISS:          0  dtACCESS:          0  dtHIT:          0  dtMISS:          0
LLC PREFETCH     ACCESS:    3594822  HIT:    2534742  MISS:    1060080  iACCESS:    1811318  iHIT:    1387742  iMISS:     423576  dACCESS:    1783504  dHIT:    1147000  dMISS:     636504  itACCESS:          0  itHIT:          0  itMISS:          0  dtACCESS:          0  dtHIT:          0  dtMISS:          0
LLC WRITE        ACCESS:     151080  HIT:     140691  MISS:      10389  iACCESS:          0  iHIT:          0  iMISS:          0  dACCESS:     151080  dHIT:     140691  dMISS:      10389  itACCESS:          0  itHIT:          0  itMISS:          0  dtACCESS:          0  dtHIT:          0  dtMISS:          0
LLC TRANSLATION  ACCESS:     116144  HIT:      47615  MISS:      68529  iACCESS:          0  iHIT:          0  iMISS:          0  dACCESS:          0  dHIT:          0  dMISS:          0  itACCESS:      12103  itHIT:       3415  itMISS:       8688  dtACCESS:     104041  dtHIT:      44200  dtMISS:      59841
LLC PREFETCH  REQUESTED:          0  ISSUED:          0  CROSSED:          0  USEFUL:          0  USELESS:          0
LLC AVERAGE iMISS LATENCY: 50.7905 cycles
LLC AVERAGE dMISS LATENCY: 98.3831 cycles
LLC AVERAGE itMISS LATENCY: 0.996668 cycles
LLC AVERAGE dtMISS LATENCY: 7.17724 cycles
LLC PAGE CROSSINGS (TLB HIT):         0 
LLC PAGE CROSSINGS (TLB MISS):         0 
LLC AVERAGE MISS LATENCY: 157.348 cycles

PageTableWalker TOTAL       ACCESS:     100796  
PageTableWalker AVERAGE LATENCY: 4.49125 cycles
PageTableWalker TOTAL LATENCY: 452700 cycles

DRAM Statistics
Channel 0
 RQ ROW_BUFFER_HIT:     451031
  ROW_BUFFER_MISS:    1055532
 AVG DBUS CONGESTED CYCLE:    3.63323
 WQ ROW_BUFFER_HIT:      30383
  ROW_BUFFER_MISS:      24730  FULL:          0

