last_page:0x200000000000000
VMEM_RES_CAP:0x100000
PAGE_SIZE:4096
LOG2_PAGE_SIZE:12
LOG2_PAGE_TABLE_SIZE:9
page_table_levels:5
WARNING: physical memory size is smaller than virtual memory size
FDiP enabled with aggresivity 16

*** ChampSim Multicore Out-of-Order Simulator ***

Warmup Instructions: 50000000
Simulation Instructions: 100000000
Number of CPUs: 1
Small page size: 4096
Large page size: 2097152

CPU 0 Bimodal branch predictor
Basic BTB sets: 1024 ways: 8 indirect buffer size: 4096 RAS size: 64
Instruction page size distrubution: 0
Loading instruction page size distribution from /home/bsc/bsc018186/scratch/itp_asplos25_AE/dump/srv641_ap.pdst
Data page size distrubution: 0
Loading data page size distribution from /home/bsc/bsc018186/scratch/itp_asplos25_AE/dump/srv641_ap.pdst
cpu0_L2C IP-based stride prefetcher
cpu0_L1D next line prefetcher
CHiRPing...
cpu0_L1I next line prefetcher
Off-chip DRAM Size: 4 GiB Channels: 1 Width: 64-bit Data Rate: 3200 MT/s
Heartbeat CPU 0 instructions: 10000003 cycles: 2500227 heartbeat IPC: 3.99964 cumulative IPC: 3.99964 (Simulation time: 0 hr 0 min 38 sec) 
Heartbeat CPU 0 instructions: 20000002 cycles: 5000288 heartbeat IPC: 3.99991 cumulative IPC: 3.99978 (Simulation time: 0 hr 1 min 18 sec) 
Heartbeat CPU 0 instructions: 30000000 cycles: 7500326 heartbeat IPC: 3.99994 cumulative IPC: 3.99983 (Simulation time: 0 hr 1 min 59 sec) 
Heartbeat CPU 0 instructions: 40000002 cycles: 10000388 heartbeat IPC: 3.99991 cumulative IPC: 3.99985 (Simulation time: 0 hr 2 min 41 sec) 
Heartbeat CPU 0 instructions: 50000000 cycles: 12500436 heartbeat IPC: 3.99993 cumulative IPC: 3.99987 (Simulation time: 0 hr 3 min 22 sec) 
Warmup finished CPU 0 instructions: 50000000 cycles: 12500437 cumulative IPC: 3.99987 (Simulation time: 0 hr 3 min 22 sec) 

Warmup complete CPU 0 instructions: 50000000 cycles: 12500437 (Simulation time: 0 hr 3 min 22 sec) 

Heartbeat CPU 0 instructions: 60000003 cycles: 31006276 heartbeat IPC: 0.540371 cumulative IPC: 0.540371 (Simulation time: 0 hr 4 min 32 sec) 
Heartbeat CPU 0 instructions: 70000002 cycles: 49030693 heartbeat IPC: 0.554803 cumulative IPC: 0.547492 (Simulation time: 0 hr 5 min 41 sec) 
Heartbeat CPU 0 instructions: 80000003 cycles: 67338664 heartbeat IPC: 0.546211 cumulative IPC: 0.547064 (Simulation time: 0 hr 6 min 52 sec) 
Heartbeat CPU 0 instructions: 90000002 cycles: 85285770 heartbeat IPC: 0.557193 cumulative IPC: 0.549562 (Simulation time: 0 hr 8 min 3 sec) 
Heartbeat CPU 0 instructions: 100000001 cycles: 103028831 heartbeat IPC: 0.563601 cumulative IPC: 0.552313 (Simulation time: 0 hr 9 min 14 sec) 
*** Reached end of trace: /gpfs/projects/bsc18/MN4/bsc18/romol/ChampSim/traces/qualcomm_srv/srv641_ap.champsimtrace.xz
Heartbeat CPU 0 instructions: 110000000 cycles: 121612023 heartbeat IPC: 0.538121 cumulative IPC: 0.549896 (Simulation time: 0 hr 10 min 27 sec) 
Heartbeat CPU 0 instructions: 120000002 cycles: 139517423 heartbeat IPC: 0.558491 cumulative IPC: 0.551108 (Simulation time: 0 hr 11 min 38 sec) 
Heartbeat CPU 0 instructions: 130000002 cycles: 157515993 heartbeat IPC: 0.5556 cumulative IPC: 0.551665 (Simulation time: 0 hr 12 min 50 sec) 
Heartbeat CPU 0 instructions: 140000000 cycles: 176284903 heartbeat IPC: 0.532796 cumulative IPC: 0.549503 (Simulation time: 0 hr 14 min 3 sec) 
Heartbeat CPU 0 instructions: 150000003 cycles: 193981273 heartbeat IPC: 0.565088 cumulative IPC: 0.551023 (Simulation time: 0 hr 15 min 14 sec) 
Simulation finished CPU 0 instructions: 100000003 cycles: 181480837 cumulative IPC: 0.551023 (Simulation time: 0 hr 15 min 14 sec) 

Simulation complete CPU 0 instructions: 100000003 cycles: 181480837 (Simulation time: 0 hr 15 min 14 sec) 


ChampSim completed all CPUs

Saving instructions large page distribution to /home/bsc/bsc018186/scratch/itp_asplos25_AE/dump/srv641_ap.pdst...
Saving data large page distribution to /home/bsc/bsc018186/scratch/itp_asplos25_AE/dump/srv641_ap.pdst...
=== Simulation ===
CPU 0 runs /gpfs/projects/bsc18/MN4/bsc18/romol/ChampSim/traces/qualcomm_srv/srv641_ap.champsimtrace.xz

Region of Interest Statistics

CPU 0 cumulative IPC: 0.551023 instructions: 100000003 cycles: 181480837
CPU 0 Branch Prediction Accuracy: 80.3626% MPKI: 35.4015 Average ROB Occupancy at Mispredict: 10.3962
Branch type MPKI
BRANCH_DIRECT_JUMP: 1.28661
BRANCH_INDIRECT: 17.8559
BRANCH_CONDITIONAL: 11.4268
BRANCH_DIRECT_CALL: 2.414
BRANCH_INDIRECT_CALL: 0.69097
BRANCH_RETURN: 1.72728

Instructions large pages: 0
Instructions small pages: 1188
Large page distribution for instructions: 0%

Data large pages: 0
Data small pages: 5766
Large page distribution for data: 0%

cpu0_L1I TOTAL       ACCESS:   35681281  HIT:   27307590  MISS:    8373691  iACCESS:   35681281  iHIT:   27307590  iMISS:    8373691  dACCESS:          0  dHIT:          0  dMISS:          0  itACCESS:          0  itHIT:          0  itMISS:          0  dtACCESS:          0  dtHIT:          0  dtMISS:          0
cpu0_L1I LOAD         ACCESS:   10251952  HIT:    7950163  MISS:    2301789  iACCESS:   10251952  iHIT:    7950163  iMISS:    2301789  dACCESS:          0  dHIT:          0  dMISS:          0  itACCESS:          0  itHIT:          0  itMISS:          0  dtACCESS:          0  dtHIT:          0  dtMISS:          0
cpu0_L1I RFO          ACCESS:          0  HIT:          0  MISS:          0  iACCESS:          0  iHIT:          0  iMISS:          0  dACCESS:          0  dHIT:          0  dMISS:          0  itACCESS:          0  itHIT:          0  itMISS:          0  dtACCESS:          0  dtHIT:          0  dtMISS:          0
cpu0_L1I PREFETCH     ACCESS:   25429329  HIT:   19357427  MISS:    6071902  iACCESS:   25429329  iHIT:   19357427  iMISS:    6071902  dACCESS:          0  dHIT:          0  dMISS:          0  itACCESS:          0  itHIT:          0  itMISS:          0  dtACCESS:          0  dtHIT:          0  dtMISS:          0
cpu0_L1I WRITE        ACCESS:          0  HIT:          0  MISS:          0  iACCESS:          0  iHIT:          0  iMISS:          0  dACCESS:          0  dHIT:          0  dMISS:          0  itACCESS:          0  itHIT:          0  itMISS:          0  dtACCESS:          0  dtHIT:          0  dtMISS:          0
cpu0_L1I TRANSLATION  ACCESS:          0  HIT:          0  MISS:          0  iACCESS:          0  iHIT:          0  iMISS:          0  dACCESS:          0  dHIT:          0  dMISS:          0  itACCESS:          0  itHIT:          0  itMISS:          0  dtACCESS:          0  dtHIT:          0  dtMISS:          0
cpu0_L1I PREFETCH  REQUESTED:   27596902  ISSUED:   27595464  CROSSED:          0  USEFUL:    1970191  USELESS:     660324
cpu0_L1I AVERAGE iMISS LATENCY: 18.3159 cycles
cpu0_L1I AVERAGE dMISS LATENCY: 0 cycles
cpu0_L1I AVERAGE itMISS LATENCY: 0 cycles
cpu0_L1I AVERAGE dtMISS LATENCY: 0 cycles
cpu0_L1I PAGE CROSSINGS (TLB HIT):         0 
cpu0_L1I PAGE CROSSINGS (TLB MISS):         0 
cpu0_L1I AVERAGE MISS LATENCY: 18.3159 cycles
cpu0_ITLB TOTAL       ACCESS:   29874879  HIT:   27919511  MISS:    1955368  iACCESS:   29874879  iHIT:   27919511  iMISS:    1955368  dACCESS:          0  dHIT:          0  dMISS:          0  itACCESS:          0  itHIT:          0  itMISS:          0  dtACCESS:          0  dtHIT:          0  dtMISS:          0
cpu0_ITLB LOAD         ACCESS:   29874879  HIT:   27919511  MISS:    1955368  iACCESS:   29874879  iHIT:   27919511  iMISS:    1955368  dACCESS:          0  dHIT:          0  dMISS:          0  itACCESS:          0  itHIT:          0  itMISS:          0  dtACCESS:          0  dtHIT:          0  dtMISS:          0
cpu0_ITLB RFO          ACCESS:          0  HIT:          0  MISS:          0  iACCESS:          0  iHIT:          0  iMISS:          0  dACCESS:          0  dHIT:          0  dMISS:          0  itACCESS:          0  itHIT:          0  itMISS:          0  dtACCESS:          0  dtHIT:          0  dtMISS:          0
cpu0_ITLB PREFETCH     ACCESS:          0  HIT:          0  MISS:          0  iACCESS:          0  iHIT:          0  iMISS:          0  dACCESS:          0  dHIT:          0  dMISS:          0  itACCESS:          0  itHIT:          0  itMISS:          0  dtACCESS:          0  dtHIT:          0  dtMISS:          0
cpu0_ITLB WRITE        ACCESS:          0  HIT:          0  MISS:          0  iACCESS:          0  iHIT:          0  iMISS:          0  dACCESS:          0  dHIT:          0  dMISS:          0  itACCESS:          0  itHIT:          0  itMISS:          0  dtACCESS:          0  dtHIT:          0  dtMISS:          0
cpu0_ITLB TRANSLATION  ACCESS:          0  HIT:          0  MISS:          0  iACCESS:          0  iHIT:          0  iMISS:          0  dACCESS:          0  dHIT:          0  dMISS:          0  itACCESS:          0  itHIT:          0  itMISS:          0  dtACCESS:          0  dtHIT:          0  dtMISS:          0
cpu0_ITLB PREFETCH  REQUESTED:          0  ISSUED:          0  CROSSED:          0  USEFUL:     330121  USELESS:      62665
cpu0_ITLB AVERAGE iMISS LATENCY: 4.07481 cycles
cpu0_ITLB AVERAGE dMISS LATENCY: 0 cycles
cpu0_ITLB AVERAGE itMISS LATENCY: 0 cycles
cpu0_ITLB AVERAGE dtMISS LATENCY: 0 cycles
cpu0_ITLB PAGE CROSSINGS (TLB HIT):         0 
cpu0_ITLB PAGE CROSSINGS (TLB MISS):         0 
cpu0_ITLB AVERAGE MISS LATENCY: 4.07481 cycles
cpu0_DTLB TOTAL       ACCESS:   28126888  HIT:   26167817  MISS:    1959071  iACCESS:          0  iHIT:          0  iMISS:          0  dACCESS:   28126888  dHIT:   26167817  dMISS:    1959071  itACCESS:          0  itHIT:          0  itMISS:          0  dtACCESS:          0  dtHIT:          0  dtMISS:          0
cpu0_DTLB LOAD         ACCESS:   28126888  HIT:   26167817  MISS:    1959071  iACCESS:          0  iHIT:          0  iMISS:          0  dACCESS:   28126888  dHIT:   26167817  dMISS:    1959071  itACCESS:          0  itHIT:          0  itMISS:          0  dtACCESS:          0  dtHIT:          0  dtMISS:          0
cpu0_DTLB RFO          ACCESS:          0  HIT:          0  MISS:          0  iACCESS:          0  iHIT:          0  iMISS:          0  dACCESS:          0  dHIT:          0  dMISS:          0  itACCESS:          0  itHIT:          0  itMISS:          0  dtACCESS:          0  dtHIT:          0  dtMISS:          0
cpu0_DTLB PREFETCH     ACCESS:          0  HIT:          0  MISS:          0  iACCESS:          0  iHIT:          0  iMISS:          0  dACCESS:          0  dHIT:          0  dMISS:          0  itACCESS:          0  itHIT:          0  itMISS:          0  dtACCESS:          0  dtHIT:          0  dtMISS:          0
cpu0_DTLB WRITE        ACCESS:          0  HIT:          0  MISS:          0  iACCESS:          0  iHIT:          0  iMISS:          0  dACCESS:          0  dHIT:          0  dMISS:          0  itACCESS:          0  itHIT:          0  itMISS:          0  dtACCESS:          0  dtHIT:          0  dtMISS:          0
cpu0_DTLB TRANSLATION  ACCESS:          0  HIT:          0  MISS:          0  iACCESS:          0  iHIT:          0  iMISS:          0  dACCESS:          0  dHIT:          0  dMISS:          0  itACCESS:          0  itHIT:          0  itMISS:          0  dtACCESS:          0  dtHIT:          0  dtMISS:          0
cpu0_DTLB PREFETCH  REQUESTED:          0  ISSUED:          0  CROSSED:          0  USEFUL:          0  USELESS:          0
cpu0_DTLB AVERAGE iMISS LATENCY: 0 cycles
cpu0_DTLB AVERAGE dMISS LATENCY: 11.903 cycles
cpu0_DTLB AVERAGE itMISS LATENCY: 0 cycles
cpu0_DTLB AVERAGE dtMISS LATENCY: 0 cycles
cpu0_DTLB PAGE CROSSINGS (TLB HIT):         0 
cpu0_DTLB PAGE CROSSINGS (TLB MISS):         0 
cpu0_DTLB AVERAGE MISS LATENCY: 11.903 cycles
cpu0_STLB TOTAL       ACCESS:    1589624  HIT:    1358016  MISS:     231608  iACCESS:     392809  iHIT:     305686  iMISS:      87123  dACCESS:    1196815  dHIT:    1052330  dMISS:     144485  itACCESS:          0  itHIT:          0  itMISS:          0  dtACCESS:          0  dtHIT:          0  dtMISS:          0
cpu0_STLB LOAD         ACCESS:    1589624  HIT:    1358016  MISS:     231608  iACCESS:     392809  iHIT:     305686  iMISS:      87123  dACCESS:    1196815  dHIT:    1052330  dMISS:     144485  itACCESS:          0  itHIT:          0  itMISS:          0  dtACCESS:          0  dtHIT:          0  dtMISS:          0
cpu0_STLB RFO          ACCESS:          0  HIT:          0  MISS:          0  iACCESS:          0  iHIT:          0  iMISS:          0  dACCESS:          0  dHIT:          0  dMISS:          0  itACCESS:          0  itHIT:          0  itMISS:          0  dtACCESS:          0  dtHIT:          0  dtMISS:          0
cpu0_STLB PREFETCH     ACCESS:          0  HIT:          0  MISS:          0  iACCESS:          0  iHIT:          0  iMISS:          0  dACCESS:          0  dHIT:          0  dMISS:          0  itACCESS:          0  itHIT:          0  itMISS:          0  dtACCESS:          0  dtHIT:          0  dtMISS:          0
cpu0_STLB WRITE        ACCESS:          0  HIT:          0  MISS:          0  iACCESS:          0  iHIT:          0  iMISS:          0  dACCESS:          0  dHIT:          0  dMISS:          0  itACCESS:          0  itHIT:          0  itMISS:          0  dtACCESS:          0  dtHIT:          0  dtMISS:          0
cpu0_STLB TRANSLATION  ACCESS:          0  HIT:          0  MISS:          0  iACCESS:          0  iHIT:          0  iMISS:          0  dACCESS:          0  dHIT:          0  dMISS:          0  itACCESS:          0  itHIT:          0  itMISS:          0  dtACCESS:          0  dtHIT:          0  dtMISS:          0
cpu0_STLB PREFETCH  REQUESTED:          0  ISSUED:          0  CROSSED:          0  USEFUL:          0  USELESS:          0
cpu0_STLB AVERAGE iMISS LATENCY: 20.8779 cycles
cpu0_STLB AVERAGE dMISS LATENCY: 59.3674 cycles
cpu0_STLB AVERAGE itMISS LATENCY: 0 cycles
cpu0_STLB AVERAGE dtMISS LATENCY: 0 cycles
cpu0_STLB PAGE CROSSINGS (TLB HIT):         0 
cpu0_STLB PAGE CROSSINGS (TLB MISS):         0 
cpu0_STLB AVERAGE MISS LATENCY: 80.2453 cycles
cpu0_L1D TOTAL       ACCESS:   42766686  HIT:   38732980  MISS:    4033706  iACCESS:          0  iHIT:          0  iMISS:          0  dACCESS:   42477404  dHIT:   38705821  dMISS:    3771583  itACCESS:      93643  itHIT:      15012  itMISS:      78631  dtACCESS:     195639  dtHIT:      12147  dtMISS:     183492
cpu0_L1D LOAD         ACCESS:   19478755  HIT:   17759406  MISS:    1719349  iACCESS:          0  iHIT:          0  iMISS:          0  dACCESS:   19478755  dHIT:   17759406  dMISS:    1719349  itACCESS:          0  itHIT:          0  itMISS:          0  dtACCESS:          0  dtHIT:          0  dtMISS:          0
cpu0_L1D RFO          ACCESS:          0  HIT:          0  MISS:          0  iACCESS:          0  iHIT:          0  iMISS:          0  dACCESS:          0  dHIT:          0  dMISS:          0  itACCESS:          0  itHIT:          0  itMISS:          0  dtACCESS:          0  dtHIT:          0  dtMISS:          0
cpu0_L1D PREFETCH     ACCESS:   12854007  HIT:   11258567  MISS:    1595440  iACCESS:          0  iHIT:          0  iMISS:          0  dACCESS:   12854007  dHIT:   11258567  dMISS:    1595440  itACCESS:          0  itHIT:          0  itMISS:          0  dtACCESS:          0  dtHIT:          0  dtMISS:          0
cpu0_L1D WRITE        ACCESS:   10144642  HIT:    9687848  MISS:     456794  iACCESS:          0  iHIT:          0  iMISS:          0  dACCESS:   10144642  dHIT:    9687848  dMISS:     456794  itACCESS:          0  itHIT:          0  itMISS:          0  dtACCESS:          0  dtHIT:          0  dtMISS:          0
cpu0_L1D TRANSLATION  ACCESS:     289282  HIT:      27159  MISS:     262123  iACCESS:          0  iHIT:          0  iMISS:          0  dACCESS:          0  dHIT:          0  dMISS:          0  itACCESS:      93643  itHIT:      15012  itMISS:      78631  dtACCESS:     195639  dtHIT:      12147  dtMISS:     183492
cpu0_L1D PREFETCH  REQUESTED:   19478755  ISSUED:   17482002  CROSSED:          0  USEFUL:     310059  USELESS:     701279
cpu0_L1D AVERAGE iMISS LATENCY: 0 cycles
cpu0_L1D AVERAGE dMISS LATENCY: 39.4419 cycles
cpu0_L1D AVERAGE itMISS LATENCY: 1.0131 cycles
cpu0_L1D AVERAGE dtMISS LATENCY: 2.92883 cycles
cpu0_L1D PAGE CROSSINGS (TLB HIT):         0 
cpu0_L1D PAGE CROSSINGS (TLB MISS):         0 
cpu0_L1D AVERAGE MISS LATENCY: 43.3838 cycles
cpu0_L2C TOTAL       ACCESS:    7238251  HIT:    1628709  MISS:    5609542  iACCESS:    3366637  iHIT:     847628  iMISS:    2519009  dACCESS:    3612400  dHIT:     625608  dMISS:    2986792  itACCESS:      78631  itHIT:      53449  itMISS:      25182  dtACCESS:     180583  dtHIT:     102024  dtMISS:      78559
cpu0_L2C LOAD         ACCESS:    1717675  HIT:     258445  MISS:    1459230  iACCESS:     772748  iHIT:     143483  iMISS:     629265  dACCESS:     944927  dHIT:     114962  dMISS:     829965  itACCESS:          0  itHIT:          0  itMISS:          0  dtACCESS:          0  dtHIT:          0  dtMISS:          0
cpu0_L2C RFO          ACCESS:     163882  HIT:      40874  MISS:     123008  iACCESS:          0  iHIT:          0  iMISS:          0  dACCESS:     163882  dHIT:      40874  dMISS:     123008  itACCESS:          0  itHIT:          0  itMISS:          0  dtACCESS:          0  dtHIT:          0  dtMISS:          0
cpu0_L2C PREFETCH     ACCESS:    4824698  HIT:    1059024  MISS:    3765674  iACCESS:    2593889  iHIT:     704145  iMISS:    1889744  dACCESS:    2230809  dHIT:     354879  dMISS:    1875930  itACCESS:          0  itHIT:          0  itMISS:          0  dtACCESS:          0  dtHIT:          0  dtMISS:          0
cpu0_L2C WRITE        ACCESS:     272782  HIT:     114893  MISS:     157889  iACCESS:          0  iHIT:          0  iMISS:          0  dACCESS:     272782  dHIT:     114893  dMISS:     157889  itACCESS:          0  itHIT:          0  itMISS:          0  dtACCESS:          0  dtHIT:          0  dtMISS:          0
cpu0_L2C TRANSLATION  ACCESS:     259214  HIT:     155473  MISS:     103741  iACCESS:          0  iHIT:          0  iMISS:          0  dACCESS:          0  dHIT:          0  dMISS:          0  itACCESS:      78631  itHIT:      53449  itMISS:      25182  dtACCESS:     180583  dtHIT:     102024  dtMISS:      78559
cpu0_L2C PREFETCH  REQUESTED:    1473283  ISSUED:    1473283  CROSSED:          0  USEFUL:     401465  USELESS:     427062
cpu0_L2C AVERAGE iMISS LATENCY: 21.9728 cycles
cpu0_L2C AVERAGE dMISS LATENCY: 35.6667 cycles
cpu0_L2C AVERAGE itMISS LATENCY: 0.597447 cycles
cpu0_L2C AVERAGE dtMISS LATENCY: 1.80111 cycles
cpu0_L2C PAGE CROSSINGS (TLB HIT):         0 
cpu0_L2C PAGE CROSSINGS (TLB MISS):         0 
cpu0_L2C AVERAGE MISS LATENCY: 60.0381 cycles
LLC TOTAL       ACCESS:    5438204  HIT:    3922627  MISS:    1515577  iACCESS:    2445712  iHIT:    1918501  iMISS:     527211  dACCESS:    2888751  dHIT:    1962990  dMISS:     925761  itACCESS:      25182  itHIT:       8756  itMISS:      16426  dtACCESS:      78559  dtHIT:      32380  dtMISS:      46179
LLC LOAD         ACCESS:    1453494  HIT:    1112675  MISS:     340819  iACCESS:     627808  iHIT:     518506  iMISS:     109302  dACCESS:     825686  dHIT:     594169  dMISS:     231517  itACCESS:          0  itHIT:          0  itMISS:          0  dtACCESS:          0  dtHIT:          0  dtMISS:          0
LLC RFO          ACCESS:     122974  HIT:      69360  MISS:      53614  iACCESS:          0  iHIT:          0  iMISS:          0  dACCESS:     122974  dHIT:      69360  dMISS:      53614  itACCESS:          0  itHIT:          0  itMISS:          0  dtACCESS:          0  dtHIT:          0  dtMISS:          0
LLC PREFETCH     ACCESS:    3598720  HIT:    2549733  MISS:    1048987  iACCESS:    1817904  iHIT:    1399995  iMISS:     417909  dACCESS:    1780816  dHIT:    1149738  dMISS:     631078  itACCESS:          0  itHIT:          0  itMISS:          0  dtACCESS:          0  dtHIT:          0  dtMISS:          0
LLC WRITE        ACCESS:     159275  HIT:     149723  MISS:       9552  iACCESS:          0  iHIT:          0  iMISS:          0  dACCESS:     159275  dHIT:     149723  dMISS:       9552  itACCESS:          0  itHIT:          0  itMISS:          0  dtACCESS:          0  dtHIT:          0  dtMISS:          0
LLC TRANSLATION  ACCESS:     103741  HIT:      41136  MISS:      62605  iACCESS:          0  iHIT:          0  iMISS:          0  dACCESS:          0  dHIT:          0  dMISS:          0  itACCESS:      25182  itHIT:       8756  itMISS:      16426  dtACCESS:      78559  dtHIT:      32380  dtMISS:      46179
LLC PREFETCH  REQUESTED:          0  ISSUED:          0  CROSSED:          0  USEFUL:          0  USELESS:          0
LLC AVERAGE iMISS LATENCY: 50.0904 cycles
LLC AVERAGE dMISS LATENCY: 97.8739 cycles
LLC AVERAGE itMISS LATENCY: 1.88551 cycles
LLC AVERAGE dtMISS LATENCY: 5.65246 cycles
LLC PAGE CROSSINGS (TLB HIT):         0 
LLC PAGE CROSSINGS (TLB MISS):         0 
LLC AVERAGE MISS LATENCY: 155.503 cycles

PageTableWalker TOTAL       ACCESS:     116001  
PageTableWalker AVERAGE LATENCY: 4.24475 cycles
PageTableWalker TOTAL LATENCY: 492395 cycles

DRAM Statistics
Channel 0
 RQ ROW_BUFFER_HIT:     460746
  ROW_BUFFER_MISS:    1033184
 AVG DBUS CONGESTED CYCLE:     3.6294
 WQ ROW_BUFFER_HIT:      30310
  ROW_BUFFER_MISS:      24253  FULL:          0

