last_page:0x200000000000000
VMEM_RES_CAP:0x100000
PAGE_SIZE:4096
LOG2_PAGE_SIZE:12
LOG2_PAGE_TABLE_SIZE:9
page_table_levels:5
WARNING: physical memory size is smaller than virtual memory size
FDiP enabled with aggresivity 16

*** ChampSim Multicore Out-of-Order Simulator ***

Warmup Instructions: 50000000
Simulation Instructions: 100000000
Number of CPUs: 1
Small page size: 4096
Large page size: 2097152

CPU 0 Bimodal branch predictor
Basic BTB sets: 1024 ways: 8 indirect buffer size: 4096 RAS size: 64
Instruction page size distrubution: 0
Loading instruction page size distribution from /home/bsc/bsc018186/scratch/itp_asplos25_AE/dump/srv697_ap.pdst
Data page size distrubution: 0
Loading data page size distribution from /home/bsc/bsc018186/scratch/itp_asplos25_AE/dump/srv697_ap.pdst
cpu0_L2C IP-based stride prefetcher
cpu0_L1D next line prefetcher
cpu0_L1I next line prefetcher
Off-chip DRAM Size: 4 GiB Channels: 1 Width: 64-bit Data Rate: 3200 MT/s
Heartbeat CPU 0 instructions: 10000002 cycles: 2500174 heartbeat IPC: 3.99973 cumulative IPC: 3.99973 (Simulation time: 0 hr 0 min 34 sec) 
Heartbeat CPU 0 instructions: 20000000 cycles: 5000208 heartbeat IPC: 3.99995 cumulative IPC: 3.99984 (Simulation time: 0 hr 1 min 11 sec) 
Heartbeat CPU 0 instructions: 30000003 cycles: 7500332 heartbeat IPC: 3.99981 cumulative IPC: 3.99983 (Simulation time: 0 hr 1 min 48 sec) 
Heartbeat CPU 0 instructions: 40000003 cycles: 10000392 heartbeat IPC: 3.99991 cumulative IPC: 3.99985 (Simulation time: 0 hr 2 min 25 sec) 
Heartbeat CPU 0 instructions: 50000001 cycles: 12500441 heartbeat IPC: 3.99993 cumulative IPC: 3.99986 (Simulation time: 0 hr 3 min 2 sec) 
Warmup finished CPU 0 instructions: 50000001 cycles: 12500442 cumulative IPC: 3.99986 (Simulation time: 0 hr 3 min 2 sec) 

Warmup complete CPU 0 instructions: 50000001 cycles: 12500442 (Simulation time: 0 hr 3 min 2 sec) 

Heartbeat CPU 0 instructions: 60000002 cycles: 27938586 heartbeat IPC: 0.647747 cumulative IPC: 0.647747 (Simulation time: 0 hr 4 min 2 sec) 
Heartbeat CPU 0 instructions: 70000000 cycles: 42518169 heartbeat IPC: 0.685891 cumulative IPC: 0.666273 (Simulation time: 0 hr 5 min 2 sec) 
Heartbeat CPU 0 instructions: 80000000 cycles: 58194301 heartbeat IPC: 0.637913 cumulative IPC: 0.656544 (Simulation time: 0 hr 6 min 3 sec) 
Heartbeat CPU 0 instructions: 90000002 cycles: 73005752 heartbeat IPC: 0.675154 cumulative IPC: 0.6611 (Simulation time: 0 hr 7 min 2 sec) 
Heartbeat CPU 0 instructions: 100000000 cycles: 88252438 heartbeat IPC: 0.655881 cumulative IPC: 0.660049 (Simulation time: 0 hr 8 min 3 sec) 
*** Reached end of trace: /gpfs/projects/bsc18/MN4/bsc18/romol/ChampSim/traces/qualcomm_srv/srv697_ap.champsimtrace.xz
Heartbeat CPU 0 instructions: 110000002 cycles: 103067121 heartbeat IPC: 0.675007 cumulative IPC: 0.662496 (Simulation time: 0 hr 9 min 11 sec) 
Heartbeat CPU 0 instructions: 120000000 cycles: 118030683 heartbeat IPC: 0.66829 cumulative IPC: 0.663317 (Simulation time: 0 hr 10 min 15 sec) 
Heartbeat CPU 0 instructions: 130000000 cycles: 133627901 heartbeat IPC: 0.64114 cumulative IPC: 0.660462 (Simulation time: 0 hr 11 min 22 sec) 
Heartbeat CPU 0 instructions: 140000003 cycles: 148195965 heartbeat IPC: 0.686434 cumulative IPC: 0.66325 (Simulation time: 0 hr 12 min 22 sec) 
Heartbeat CPU 0 instructions: 150000000 cycles: 163700952 heartbeat IPC: 0.644954 cumulative IPC: 0.661374 (Simulation time: 0 hr 13 min 23 sec) 
Simulation finished CPU 0 instructions: 100000004 cycles: 151200512 cumulative IPC: 0.661374 (Simulation time: 0 hr 13 min 23 sec) 

Simulation complete CPU 0 instructions: 100000004 cycles: 151200512 (Simulation time: 0 hr 13 min 23 sec) 


ChampSim completed all CPUs

Saving instructions large page distribution to /home/bsc/bsc018186/scratch/itp_asplos25_AE/dump/srv697_ap.pdst...
Saving data large page distribution to /home/bsc/bsc018186/scratch/itp_asplos25_AE/dump/srv697_ap.pdst...
=== Simulation ===
CPU 0 runs /gpfs/projects/bsc18/MN4/bsc18/romol/ChampSim/traces/qualcomm_srv/srv697_ap.champsimtrace.xz

Region of Interest Statistics

CPU 0 cumulative IPC: 0.661374 instructions: 100000004 cycles: 151200512
CPU 0 Branch Prediction Accuracy: 83.463% MPKI: 29.7079 Average ROB Occupancy at Mispredict: 12.7451
Branch type MPKI
BRANCH_DIRECT_JUMP: 0.95082
BRANCH_INDIRECT: 15.4078
BRANCH_CONDITIONAL: 9.71741
BRANCH_DIRECT_CALL: 1.81124
BRANCH_INDIRECT_CALL: 0.50032
BRANCH_RETURN: 1.3204

Instructions large pages: 0
Instructions small pages: 9679
Large page distribution for instructions: 0%

Data large pages: 0
Data small pages: 8829
Large page distribution for data: 0%

cpu0_L1I TOTAL       ACCESS:   34583649  HIT:   26658976  MISS:    7924673  iACCESS:   34583649  iHIT:   26658976  iMISS:    7924673  dACCESS:          0  dHIT:          0  dMISS:          0  itACCESS:          0  itHIT:          0  itMISS:          0  dtACCESS:          0  dtHIT:          0  dtMISS:          0
cpu0_L1I LOAD         ACCESS:   10088636  HIT:    7857270  MISS:    2231366  iACCESS:   10088636  iHIT:    7857270  iMISS:    2231366  dACCESS:          0  dHIT:          0  dMISS:          0  itACCESS:          0  itHIT:          0  itMISS:          0  dtACCESS:          0  dtHIT:          0  dtMISS:          0
cpu0_L1I RFO          ACCESS:          0  HIT:          0  MISS:          0  iACCESS:          0  iHIT:          0  iMISS:          0  dACCESS:          0  dHIT:          0  dMISS:          0  itACCESS:          0  itHIT:          0  itMISS:          0  dtACCESS:          0  dtHIT:          0  dtMISS:          0
cpu0_L1I PREFETCH     ACCESS:   24495013  HIT:   18801706  MISS:    5693307  iACCESS:   24495013  iHIT:   18801706  iMISS:    5693307  dACCESS:          0  dHIT:          0  dMISS:          0  itACCESS:          0  itHIT:          0  itMISS:          0  dtACCESS:          0  dtHIT:          0  dtMISS:          0
cpu0_L1I WRITE        ACCESS:          0  HIT:          0  MISS:          0  iACCESS:          0  iHIT:          0  iMISS:          0  dACCESS:          0  dHIT:          0  dMISS:          0  itACCESS:          0  itHIT:          0  itMISS:          0  dtACCESS:          0  dtHIT:          0  dtMISS:          0
cpu0_L1I TRANSLATION  ACCESS:          0  HIT:          0  MISS:          0  iACCESS:          0  iHIT:          0  iMISS:          0  dACCESS:          0  dHIT:          0  dMISS:          0  itACCESS:          0  itHIT:          0  itMISS:          0  dtACCESS:          0  dtHIT:          0  dtMISS:          0
cpu0_L1I PREFETCH  REQUESTED:   26995456  ISSUED:   26995456  CROSSED:          0  USEFUL:    1926445  USELESS:     639014
cpu0_L1I AVERAGE iMISS LATENCY: 12.5701 cycles
cpu0_L1I AVERAGE dMISS LATENCY: 0 cycles
cpu0_L1I AVERAGE itMISS LATENCY: 0 cycles
cpu0_L1I AVERAGE dtMISS LATENCY: 0 cycles
cpu0_L1I PAGE CROSSINGS (TLB HIT):         0 
cpu0_L1I PAGE CROSSINGS (TLB MISS):         0 
cpu0_L1I AVERAGE MISS LATENCY: 12.5701 cycles
cpu0_ITLB TOTAL       ACCESS:   28908777  HIT:   26893673  MISS:    2015104  iACCESS:   28908777  iHIT:   26893673  iMISS:    2015104  dACCESS:          0  dHIT:          0  dMISS:          0  itACCESS:          0  itHIT:          0  itMISS:          0  dtACCESS:          0  dtHIT:          0  dtMISS:          0
cpu0_ITLB LOAD         ACCESS:   28908777  HIT:   26893673  MISS:    2015104  iACCESS:   28908777  iHIT:   26893673  iMISS:    2015104  dACCESS:          0  dHIT:          0  dMISS:          0  itACCESS:          0  itHIT:          0  itMISS:          0  dtACCESS:          0  dtHIT:          0  dtMISS:          0
cpu0_ITLB RFO          ACCESS:          0  HIT:          0  MISS:          0  iACCESS:          0  iHIT:          0  iMISS:          0  dACCESS:          0  dHIT:          0  dMISS:          0  itACCESS:          0  itHIT:          0  itMISS:          0  dtACCESS:          0  dtHIT:          0  dtMISS:          0
cpu0_ITLB PREFETCH     ACCESS:          0  HIT:          0  MISS:          0  iACCESS:          0  iHIT:          0  iMISS:          0  dACCESS:          0  dHIT:          0  dMISS:          0  itACCESS:          0  itHIT:          0  itMISS:          0  dtACCESS:          0  dtHIT:          0  dtMISS:          0
cpu0_ITLB WRITE        ACCESS:          0  HIT:          0  MISS:          0  iACCESS:          0  iHIT:          0  iMISS:          0  dACCESS:          0  dHIT:          0  dMISS:          0  itACCESS:          0  itHIT:          0  itMISS:          0  dtACCESS:          0  dtHIT:          0  dtMISS:          0
cpu0_ITLB TRANSLATION  ACCESS:          0  HIT:          0  MISS:          0  iACCESS:          0  iHIT:          0  iMISS:          0  dACCESS:          0  dHIT:          0  dMISS:          0  itACCESS:          0  itHIT:          0  itMISS:          0  dtACCESS:          0  dtHIT:          0  dtMISS:          0
cpu0_ITLB PREFETCH  REQUESTED:          0  ISSUED:          0  CROSSED:          0  USEFUL:     325581  USELESS:      63366
cpu0_ITLB AVERAGE iMISS LATENCY: 4.94195 cycles
cpu0_ITLB AVERAGE dMISS LATENCY: 0 cycles
cpu0_ITLB AVERAGE itMISS LATENCY: 0 cycles
cpu0_ITLB AVERAGE dtMISS LATENCY: 0 cycles
cpu0_ITLB PAGE CROSSINGS (TLB HIT):         0 
cpu0_ITLB PAGE CROSSINGS (TLB MISS):         0 
cpu0_ITLB AVERAGE MISS LATENCY: 4.94195 cycles
cpu0_DTLB TOTAL       ACCESS:   27703360  HIT:   25654438  MISS:    2048922  iACCESS:          0  iHIT:          0  iMISS:          0  dACCESS:   27703360  dHIT:   25654438  dMISS:    2048922  itACCESS:          0  itHIT:          0  itMISS:          0  dtACCESS:          0  dtHIT:          0  dtMISS:          0
cpu0_DTLB LOAD         ACCESS:   27703360  HIT:   25654438  MISS:    2048922  iACCESS:          0  iHIT:          0  iMISS:          0  dACCESS:   27703360  dHIT:   25654438  dMISS:    2048922  itACCESS:          0  itHIT:          0  itMISS:          0  dtACCESS:          0  dtHIT:          0  dtMISS:          0
cpu0_DTLB RFO          ACCESS:          0  HIT:          0  MISS:          0  iACCESS:          0  iHIT:          0  iMISS:          0  dACCESS:          0  dHIT:          0  dMISS:          0  itACCESS:          0  itHIT:          0  itMISS:          0  dtACCESS:          0  dtHIT:          0  dtMISS:          0
cpu0_DTLB PREFETCH     ACCESS:          0  HIT:          0  MISS:          0  iACCESS:          0  iHIT:          0  iMISS:          0  dACCESS:          0  dHIT:          0  dMISS:          0  itACCESS:          0  itHIT:          0  itMISS:          0  dtACCESS:          0  dtHIT:          0  dtMISS:          0
cpu0_DTLB WRITE        ACCESS:          0  HIT:          0  MISS:          0  iACCESS:          0  iHIT:          0  iMISS:          0  dACCESS:          0  dHIT:          0  dMISS:          0  itACCESS:          0  itHIT:          0  itMISS:          0  dtACCESS:          0  dtHIT:          0  dtMISS:          0
cpu0_DTLB TRANSLATION  ACCESS:          0  HIT:          0  MISS:          0  iACCESS:          0  iHIT:          0  iMISS:          0  dACCESS:          0  dHIT:          0  dMISS:          0  itACCESS:          0  itHIT:          0  itMISS:          0  dtACCESS:          0  dtHIT:          0  dtMISS:          0
cpu0_DTLB PREFETCH  REQUESTED:          0  ISSUED:          0  CROSSED:          0  USEFUL:          0  USELESS:          0
cpu0_DTLB AVERAGE iMISS LATENCY: 0 cycles
cpu0_DTLB AVERAGE dMISS LATENCY: 14.6398 cycles
cpu0_DTLB AVERAGE itMISS LATENCY: 0 cycles
cpu0_DTLB AVERAGE dtMISS LATENCY: 0 cycles
cpu0_DTLB PAGE CROSSINGS (TLB HIT):         0 
cpu0_DTLB PAGE CROSSINGS (TLB MISS):         0 
cpu0_DTLB AVERAGE MISS LATENCY: 14.6398 cycles
cpu0_STLB TOTAL       ACCESS:    1631090  HIT:    1469716  MISS:     161374  iACCESS:     388959  iHIT:     332345  iMISS:      56614  dACCESS:    1242131  dHIT:    1137371  dMISS:     104760  itACCESS:          0  itHIT:          0  itMISS:          0  dtACCESS:          0  dtHIT:          0  dtMISS:          0
cpu0_STLB LOAD         ACCESS:    1631090  HIT:    1469716  MISS:     161374  iACCESS:     388959  iHIT:     332345  iMISS:      56614  dACCESS:    1242131  dHIT:    1137371  dMISS:     104760  itACCESS:          0  itHIT:          0  itMISS:          0  dtACCESS:          0  dtHIT:          0  dtMISS:          0
cpu0_STLB RFO          ACCESS:          0  HIT:          0  MISS:          0  iACCESS:          0  iHIT:          0  iMISS:          0  dACCESS:          0  dHIT:          0  dMISS:          0  itACCESS:          0  itHIT:          0  itMISS:          0  dtACCESS:          0  dtHIT:          0  dtMISS:          0
cpu0_STLB PREFETCH     ACCESS:          0  HIT:          0  MISS:          0  iACCESS:          0  iHIT:          0  iMISS:          0  dACCESS:          0  dHIT:          0  dMISS:          0  itACCESS:          0  itHIT:          0  itMISS:          0  dtACCESS:          0  dtHIT:          0  dtMISS:          0
cpu0_STLB WRITE        ACCESS:          0  HIT:          0  MISS:          0  iACCESS:          0  iHIT:          0  iMISS:          0  dACCESS:          0  dHIT:          0  dMISS:          0  itACCESS:          0  itHIT:          0  itMISS:          0  dtACCESS:          0  dtHIT:          0  dtMISS:          0
cpu0_STLB TRANSLATION  ACCESS:          0  HIT:          0  MISS:          0  iACCESS:          0  iHIT:          0  iMISS:          0  dACCESS:          0  dHIT:          0  dMISS:          0  itACCESS:          0  itHIT:          0  itMISS:          0  dtACCESS:          0  dtHIT:          0  dtMISS:          0
cpu0_STLB PREFETCH  REQUESTED:          0  ISSUED:          0  CROSSED:          0  USEFUL:          0  USELESS:          0
cpu0_STLB AVERAGE iMISS LATENCY: 42.6795 cycles
cpu0_STLB AVERAGE dMISS LATENCY: 124.535 cycles
cpu0_STLB AVERAGE itMISS LATENCY: 0 cycles
cpu0_STLB AVERAGE dtMISS LATENCY: 0 cycles
cpu0_STLB PAGE CROSSINGS (TLB HIT):         0 
cpu0_STLB PAGE CROSSINGS (TLB MISS):         0 
cpu0_STLB AVERAGE MISS LATENCY: 167.215 cycles
cpu0_L1D TOTAL       ACCESS:   41428995  HIT:   37933995  MISS:    3495000  iACCESS:          0  iHIT:          0  iMISS:          0  dACCESS:   41208497  dHIT:   37914542  dMISS:    3293955  itACCESS:      61516  itHIT:       9152  itMISS:      52364  dtACCESS:     158982  dtHIT:      10301  dtMISS:     148681
cpu0_L1D LOAD         ACCESS:   18908252  HIT:   17402146  MISS:    1506106  iACCESS:          0  iHIT:          0  iMISS:          0  dACCESS:   18908252  dHIT:   17402146  dMISS:    1506106  itACCESS:          0  itHIT:          0  itMISS:          0  dtACCESS:          0  dtHIT:          0  dtMISS:          0
cpu0_L1D RFO          ACCESS:          0  HIT:          0  MISS:          0  iACCESS:          0  iHIT:          0  iMISS:          0  dACCESS:          0  dHIT:          0  dMISS:          0  itACCESS:          0  itHIT:          0  itMISS:          0  dtACCESS:          0  dtHIT:          0  dtMISS:          0
cpu0_L1D PREFETCH     ACCESS:   12139637  HIT:   10789855  MISS:    1349782  iACCESS:          0  iHIT:          0  iMISS:          0  dACCESS:   12139637  dHIT:   10789855  dMISS:    1349782  itACCESS:          0  itHIT:          0  itMISS:          0  dtACCESS:          0  dtHIT:          0  dtMISS:          0
cpu0_L1D WRITE        ACCESS:   10160608  HIT:    9722541  MISS:     438067  iACCESS:          0  iHIT:          0  iMISS:          0  dACCESS:   10160608  dHIT:    9722541  dMISS:     438067  itACCESS:          0  itHIT:          0  itMISS:          0  dtACCESS:          0  dtHIT:          0  dtMISS:          0
cpu0_L1D TRANSLATION  ACCESS:     220498  HIT:      19453  MISS:     201045  iACCESS:          0  iHIT:          0  iMISS:          0  dACCESS:          0  dHIT:          0  dMISS:          0  itACCESS:      61516  itHIT:       9152  itMISS:      52364  dtACCESS:     158982  dtHIT:      10301  dtMISS:     148681
cpu0_L1D PREFETCH  REQUESTED:   18908252  ISSUED:   16932170  CROSSED:          0  USEFUL:     307472  USELESS:     700846
cpu0_L1D AVERAGE iMISS LATENCY: 0 cycles
cpu0_L1D AVERAGE dMISS LATENCY: 31.8274 cycles
cpu0_L1D AVERAGE itMISS LATENCY: 1.8315 cycles
cpu0_L1D AVERAGE dtMISS LATENCY: 5.10688 cycles
cpu0_L1D PAGE CROSSINGS (TLB HIT):         0 
cpu0_L1D PAGE CROSSINGS (TLB MISS):         0 
cpu0_L1D AVERAGE MISS LATENCY: 38.7657 cycles
cpu0_L2C TOTAL       ACCESS:    7000130  HIT:    4117640  MISS:    2882490  iACCESS:    3329897  iHIT:    2247084  iMISS:    1082813  dACCESS:    3479422  dHIT:    1845429  dMISS:    1633993  itACCESS:      52364  itHIT:       9416  itMISS:      42948  dtACCESS:     138447  dtHIT:      15711  dtMISS:     122736
cpu0_L2C LOAD         ACCESS:    1739259  HIT:    1062033  MISS:     677226  iACCESS:     805231  iHIT:     572077  iMISS:     233154  dACCESS:     934028  dHIT:     489956  dMISS:     444072  itACCESS:          0  itHIT:          0  itMISS:          0  dtACCESS:          0  dtHIT:          0  dtMISS:          0
cpu0_L2C RFO          ACCESS:     155647  HIT:      72988  MISS:      82659  iACCESS:          0  iHIT:          0  iMISS:          0  dACCESS:     155647  dHIT:      72988  dMISS:      82659  itACCESS:          0  itHIT:          0  itMISS:          0  dtACCESS:          0  dtHIT:          0  dtMISS:          0
cpu0_L2C PREFETCH     ACCESS:    4629851  HIT:    2674363  MISS:    1955488  iACCESS:    2524666  iHIT:    1675007  iMISS:     849659  dACCESS:    2105185  dHIT:     999356  dMISS:    1105829  itACCESS:          0  itHIT:          0  itMISS:          0  dtACCESS:          0  dtHIT:          0  dtMISS:          0
cpu0_L2C WRITE        ACCESS:     284562  HIT:     283129  MISS:       1433  iACCESS:          0  iHIT:          0  iMISS:          0  dACCESS:     284562  dHIT:     283129  dMISS:       1433  itACCESS:          0  itHIT:          0  itMISS:          0  dtACCESS:          0  dtHIT:          0  dtMISS:          0
cpu0_L2C TRANSLATION  ACCESS:     190811  HIT:      25127  MISS:     165684  iACCESS:          0  iHIT:          0  iMISS:          0  dACCESS:          0  dHIT:          0  dMISS:          0  itACCESS:      52364  itHIT:       9416  itMISS:      42948  dtACCESS:     138447  dtHIT:      15711  dtMISS:     122736
cpu0_L2C PREFETCH  REQUESTED:    1378282  ISSUED:    1378282  CROSSED:          0  USEFUL:     308832  USELESS:     229097
cpu0_L2C AVERAGE iMISS LATENCY: 23.9549 cycles
cpu0_L2C AVERAGE dMISS LATENCY: 45.2205 cycles
cpu0_L2C AVERAGE itMISS LATENCY: 2.04181 cycles
cpu0_L2C AVERAGE dtMISS LATENCY: 5.71319 cycles
cpu0_L2C PAGE CROSSINGS (TLB HIT):         0 
cpu0_L2C PAGE CROSSINGS (TLB MISS):         0 
cpu0_L2C AVERAGE MISS LATENCY: 76.9304 cycles
LLC TOTAL       ACCESS:    2908511  HIT:    1851114  MISS:    1057397  iACCESS:    1027242  iHIT:     697611  iMISS:     329631  dACCESS:    1715585  dHIT:    1096002  dMISS:     619583  itACCESS:      42948  itHIT:      13506  itMISS:      29442  dtACCESS:     122736  dtHIT:      43995  dtMISS:      78741
LLC LOAD         ACCESS:     675855  HIT:     449110  MISS:     226745  iACCESS:     231897  iHIT:     158770  iMISS:      73127  dACCESS:     443958  dHIT:     290340  dMISS:     153618  itACCESS:          0  itHIT:          0  itMISS:          0  dtACCESS:          0  dtHIT:          0  dtMISS:          0
LLC RFO          ACCESS:      82653  HIT:      42785  MISS:      39868  iACCESS:          0  iHIT:          0  iMISS:          0  dACCESS:      82653  dHIT:      42785  dMISS:      39868  itACCESS:          0  itHIT:          0  itMISS:          0  dtACCESS:          0  dtHIT:          0  dtMISS:          0
LLC PREFETCH     ACCESS:    1849045  HIT:    1172864  MISS:     676181  iACCESS:     795345  iHIT:     538841  iMISS:     256504  dACCESS:    1053700  dHIT:     634023  dMISS:     419677  itACCESS:          0  itHIT:          0  itMISS:          0  dtACCESS:          0  dtHIT:          0  dtMISS:          0
LLC WRITE        ACCESS:     135274  HIT:     128854  MISS:       6420  iACCESS:          0  iHIT:          0  iMISS:          0  dACCESS:     135274  dHIT:     128854  dMISS:       6420  itACCESS:          0  itHIT:          0  itMISS:          0  dtACCESS:          0  dtHIT:          0  dtMISS:          0
LLC TRANSLATION  ACCESS:     165684  HIT:      57501  MISS:     108183  iACCESS:          0  iHIT:          0  iMISS:          0  dACCESS:          0  dHIT:          0  dMISS:          0  itACCESS:      42948  itHIT:      13506  itMISS:      29442  dtACCESS:     122736  dtHIT:      43995  dtMISS:      78741
LLC PREFETCH  REQUESTED:          0  ISSUED:          0  CROSSED:          0  USEFUL:          0  USELESS:          0
LLC AVERAGE iMISS LATENCY: 46.4259 cycles
LLC AVERAGE dMISS LATENCY: 94.3085 cycles
LLC AVERAGE itMISS LATENCY: 4.76854 cycles
LLC AVERAGE dtMISS LATENCY: 13.3005 cycles
LLC PAGE CROSSINGS (TLB HIT):         0 
LLC PAGE CROSSINGS (TLB MISS):         0 
LLC AVERAGE MISS LATENCY: 158.804 cycles

PageTableWalker TOTAL       ACCESS:      81658  
PageTableWalker AVERAGE LATENCY: 5.20956 cycles
PageTableWalker TOTAL LATENCY: 425402 cycles

DRAM Statistics
Channel 0
 RQ ROW_BUFFER_HIT:     269170
  ROW_BUFFER_MISS:     781760
 AVG DBUS CONGESTED CYCLE:    3.61531
 WQ ROW_BUFFER_HIT:      21453
  ROW_BUFFER_MISS:      22092  FULL:          0

