last_page:0x200000000000000
VMEM_RES_CAP:0x100000
PAGE_SIZE:4096
LOG2_PAGE_SIZE:12
LOG2_PAGE_TABLE_SIZE:9
page_table_levels:5
WARNING: physical memory size is smaller than virtual memory size
FDiP enabled with aggresivity 16

*** ChampSim Multicore Out-of-Order Simulator ***

Warmup Instructions: 50000000
Simulation Instructions: 100000000
Number of CPUs: 1
Small page size: 4096
Large page size: 2097152

CPU 0 Bimodal branch predictor
Basic BTB sets: 1024 ways: 8 indirect buffer size: 4096 RAS size: 64
Instruction page size distrubution: 0
Loading instruction page size distribution from /home/bsc/bsc018186/scratch/itp_asplos25_AE/dump/srv638_ap.pdst
Data page size distrubution: 0
Loading data page size distribution from /home/bsc/bsc018186/scratch/itp_asplos25_AE/dump/srv638_ap.pdst
cpu0_L2C IP-based stride prefetcher
cpu0_L1D next line prefetcher
cpu0_L1I next line prefetcher
Off-chip DRAM Size: 4 GiB Channels: 1 Width: 64-bit Data Rate: 3200 MT/s
Heartbeat CPU 0 instructions: 10000003 cycles: 2500167 heartbeat IPC: 3.99974 cumulative IPC: 3.99974 (Simulation time: 0 hr 0 min 34 sec) 
Heartbeat CPU 0 instructions: 20000001 cycles: 5000198 heartbeat IPC: 3.99995 cumulative IPC: 3.99985 (Simulation time: 0 hr 1 min 11 sec) 
Heartbeat CPU 0 instructions: 30000000 cycles: 7500205 heartbeat IPC: 3.99999 cumulative IPC: 3.9999 (Simulation time: 0 hr 1 min 47 sec) 
Heartbeat CPU 0 instructions: 40000001 cycles: 10000215 heartbeat IPC: 3.99999 cumulative IPC: 3.99992 (Simulation time: 0 hr 2 min 24 sec) 
Heartbeat CPU 0 instructions: 50000001 cycles: 12500276 heartbeat IPC: 3.99991 cumulative IPC: 3.99992 (Simulation time: 0 hr 3 min 1 sec) 
Warmup finished CPU 0 instructions: 50000001 cycles: 12500277 cumulative IPC: 3.99992 (Simulation time: 0 hr 3 min 1 sec) 

Warmup complete CPU 0 instructions: 50000001 cycles: 12500277 (Simulation time: 0 hr 3 min 1 sec) 

Heartbeat CPU 0 instructions: 60000001 cycles: 27888545 heartbeat IPC: 0.649846 cumulative IPC: 0.649846 (Simulation time: 0 hr 4 min 1 sec) 
Heartbeat CPU 0 instructions: 70000002 cycles: 42999288 heartbeat IPC: 0.661781 cumulative IPC: 0.65576 (Simulation time: 0 hr 5 min 1 sec) 
Heartbeat CPU 0 instructions: 80000003 cycles: 58209837 heartbeat IPC: 0.657439 cumulative IPC: 0.656318 (Simulation time: 0 hr 6 min 1 sec) 
Heartbeat CPU 0 instructions: 90000001 cycles: 73419914 heartbeat IPC: 0.657459 cumulative IPC: 0.656603 (Simulation time: 0 hr 7 min 1 sec) 
Heartbeat CPU 0 instructions: 100000001 cycles: 88407289 heartbeat IPC: 0.667229 cumulative IPC: 0.658701 (Simulation time: 0 hr 8 min 1 sec) 
*** Reached end of trace: /gpfs/projects/bsc18/MN4/bsc18/romol/ChampSim/traces/qualcomm_srv/srv638_ap.champsimtrace.xz
Heartbeat CPU 0 instructions: 110000001 cycles: 103616645 heartbeat IPC: 0.657491 cumulative IPC: 0.658499 (Simulation time: 0 hr 9 min 1 sec) 
Heartbeat CPU 0 instructions: 120000002 cycles: 118509497 heartbeat IPC: 0.671464 cumulative IPC: 0.66032 (Simulation time: 0 hr 10 min 0 sec) 
Heartbeat CPU 0 instructions: 130000003 cycles: 133162395 heartbeat IPC: 0.682459 cumulative IPC: 0.663009 (Simulation time: 0 hr 11 min 0 sec) 
Heartbeat CPU 0 instructions: 140000000 cycles: 147983460 heartbeat IPC: 0.674716 cumulative IPC: 0.66429 (Simulation time: 0 hr 11 min 59 sec) 
Heartbeat CPU 0 instructions: 150000003 cycles: 163054251 heartbeat IPC: 0.663536 cumulative IPC: 0.664214 (Simulation time: 0 hr 12 min 59 sec) 
Simulation finished CPU 0 instructions: 100000002 cycles: 150553975 cumulative IPC: 0.664214 (Simulation time: 0 hr 12 min 59 sec) 

Simulation complete CPU 0 instructions: 100000002 cycles: 150553975 (Simulation time: 0 hr 12 min 59 sec) 


ChampSim completed all CPUs

Saving instructions large page distribution to /home/bsc/bsc018186/scratch/itp_asplos25_AE/dump/srv638_ap.pdst...
Saving data large page distribution to /home/bsc/bsc018186/scratch/itp_asplos25_AE/dump/srv638_ap.pdst...
=== Simulation ===
CPU 0 runs /gpfs/projects/bsc18/MN4/bsc18/romol/ChampSim/traces/qualcomm_srv/srv638_ap.champsimtrace.xz

Region of Interest Statistics

CPU 0 cumulative IPC: 0.664214 instructions: 100000002 cycles: 150553975
CPU 0 Branch Prediction Accuracy: 83.3065% MPKI: 29.9322 Average ROB Occupancy at Mispredict: 12.8232
Branch type MPKI
BRANCH_DIRECT_JUMP: 0.96882
BRANCH_INDIRECT: 15.5202
BRANCH_CONDITIONAL: 9.76945
BRANCH_DIRECT_CALL: 1.84419
BRANCH_INDIRECT_CALL: 0.48996
BRANCH_RETURN: 1.33965

Instructions large pages: 0
Instructions small pages: 867
Large page distribution for instructions: 0%

Data large pages: 0
Data small pages: 8669
Large page distribution for data: 0%

cpu0_L1I TOTAL       ACCESS:   34583619  HIT:   26683578  MISS:    7900041  iACCESS:   34583619  iHIT:   26683578  iMISS:    7900041  dACCESS:          0  dHIT:          0  dMISS:          0  itACCESS:          0  itHIT:          0  itMISS:          0  dtACCESS:          0  dtHIT:          0  dtMISS:          0
cpu0_L1I LOAD         ACCESS:   10104353  HIT:    7882946  MISS:    2221407  iACCESS:   10104353  iHIT:    7882946  iMISS:    2221407  dACCESS:          0  dHIT:          0  dMISS:          0  itACCESS:          0  itHIT:          0  itMISS:          0  dtACCESS:          0  dtHIT:          0  dtMISS:          0
cpu0_L1I RFO          ACCESS:          0  HIT:          0  MISS:          0  iACCESS:          0  iHIT:          0  iMISS:          0  dACCESS:          0  dHIT:          0  dMISS:          0  itACCESS:          0  itHIT:          0  itMISS:          0  dtACCESS:          0  dtHIT:          0  dtMISS:          0
cpu0_L1I PREFETCH     ACCESS:   24479266  HIT:   18800632  MISS:    5678634  iACCESS:   24479266  iHIT:   18800632  iMISS:    5678634  dACCESS:          0  dHIT:          0  dMISS:          0  itACCESS:          0  itHIT:          0  itMISS:          0  dtACCESS:          0  dtHIT:          0  dtMISS:          0
cpu0_L1I WRITE        ACCESS:          0  HIT:          0  MISS:          0  iACCESS:          0  iHIT:          0  iMISS:          0  dACCESS:          0  dHIT:          0  dMISS:          0  itACCESS:          0  itHIT:          0  itMISS:          0  dtACCESS:          0  dtHIT:          0  dtMISS:          0
cpu0_L1I TRANSLATION  ACCESS:          0  HIT:          0  MISS:          0  iACCESS:          0  iHIT:          0  iMISS:          0  dACCESS:          0  dHIT:          0  dMISS:          0  itACCESS:          0  itHIT:          0  itMISS:          0  dtACCESS:          0  dtHIT:          0  dtMISS:          0
cpu0_L1I PREFETCH  REQUESTED:   26985646  ISSUED:   26985646  CROSSED:          0  USEFUL:    1927835  USELESS:     632961
cpu0_L1I AVERAGE iMISS LATENCY: 12.6369 cycles
cpu0_L1I AVERAGE dMISS LATENCY: 0 cycles
cpu0_L1I AVERAGE itMISS LATENCY: 0 cycles
cpu0_L1I AVERAGE dtMISS LATENCY: 0 cycles
cpu0_L1I PAGE CROSSINGS (TLB HIT):         0 
cpu0_L1I PAGE CROSSINGS (TLB MISS):         0 
cpu0_L1I AVERAGE MISS LATENCY: 12.6369 cycles
cpu0_ITLB TOTAL       ACCESS:   28906244  HIT:   26899155  MISS:    2007089  iACCESS:   28906244  iHIT:   26899155  iMISS:    2007089  dACCESS:          0  dHIT:          0  dMISS:          0  itACCESS:          0  itHIT:          0  itMISS:          0  dtACCESS:          0  dtHIT:          0  dtMISS:          0
cpu0_ITLB LOAD         ACCESS:   28906244  HIT:   26899155  MISS:    2007089  iACCESS:   28906244  iHIT:   26899155  iMISS:    2007089  dACCESS:          0  dHIT:          0  dMISS:          0  itACCESS:          0  itHIT:          0  itMISS:          0  dtACCESS:          0  dtHIT:          0  dtMISS:          0
cpu0_ITLB RFO          ACCESS:          0  HIT:          0  MISS:          0  iACCESS:          0  iHIT:          0  iMISS:          0  dACCESS:          0  dHIT:          0  dMISS:          0  itACCESS:          0  itHIT:          0  itMISS:          0  dtACCESS:          0  dtHIT:          0  dtMISS:          0
cpu0_ITLB PREFETCH     ACCESS:          0  HIT:          0  MISS:          0  iACCESS:          0  iHIT:          0  iMISS:          0  dACCESS:          0  dHIT:          0  dMISS:          0  itACCESS:          0  itHIT:          0  itMISS:          0  dtACCESS:          0  dtHIT:          0  dtMISS:          0
cpu0_ITLB WRITE        ACCESS:          0  HIT:          0  MISS:          0  iACCESS:          0  iHIT:          0  iMISS:          0  dACCESS:          0  dHIT:          0  dMISS:          0  itACCESS:          0  itHIT:          0  itMISS:          0  dtACCESS:          0  dtHIT:          0  dtMISS:          0
cpu0_ITLB TRANSLATION  ACCESS:          0  HIT:          0  MISS:          0  iACCESS:          0  iHIT:          0  iMISS:          0  dACCESS:          0  dHIT:          0  dMISS:          0  itACCESS:          0  itHIT:          0  itMISS:          0  dtACCESS:          0  dtHIT:          0  dtMISS:          0
cpu0_ITLB PREFETCH  REQUESTED:          0  ISSUED:          0  CROSSED:          0  USEFUL:     324667  USELESS:      62749
cpu0_ITLB AVERAGE iMISS LATENCY: 4.71437 cycles
cpu0_ITLB AVERAGE dMISS LATENCY: 0 cycles
cpu0_ITLB AVERAGE itMISS LATENCY: 0 cycles
cpu0_ITLB AVERAGE dtMISS LATENCY: 0 cycles
cpu0_ITLB PAGE CROSSINGS (TLB HIT):         0 
cpu0_ITLB PAGE CROSSINGS (TLB MISS):         0 
cpu0_ITLB AVERAGE MISS LATENCY: 4.71437 cycles
cpu0_DTLB TOTAL       ACCESS:   27672375  HIT:   25620748  MISS:    2051627  iACCESS:          0  iHIT:          0  iMISS:          0  dACCESS:   27672375  dHIT:   25620748  dMISS:    2051627  itACCESS:          0  itHIT:          0  itMISS:          0  dtACCESS:          0  dtHIT:          0  dtMISS:          0
cpu0_DTLB LOAD         ACCESS:   27672375  HIT:   25620748  MISS:    2051627  iACCESS:          0  iHIT:          0  iMISS:          0  dACCESS:   27672375  dHIT:   25620748  dMISS:    2051627  itACCESS:          0  itHIT:          0  itMISS:          0  dtACCESS:          0  dtHIT:          0  dtMISS:          0
cpu0_DTLB RFO          ACCESS:          0  HIT:          0  MISS:          0  iACCESS:          0  iHIT:          0  iMISS:          0  dACCESS:          0  dHIT:          0  dMISS:          0  itACCESS:          0  itHIT:          0  itMISS:          0  dtACCESS:          0  dtHIT:          0  dtMISS:          0
cpu0_DTLB PREFETCH     ACCESS:          0  HIT:          0  MISS:          0  iACCESS:          0  iHIT:          0  iMISS:          0  dACCESS:          0  dHIT:          0  dMISS:          0  itACCESS:          0  itHIT:          0  itMISS:          0  dtACCESS:          0  dtHIT:          0  dtMISS:          0
cpu0_DTLB WRITE        ACCESS:          0  HIT:          0  MISS:          0  iACCESS:          0  iHIT:          0  iMISS:          0  dACCESS:          0  dHIT:          0  dMISS:          0  itACCESS:          0  itHIT:          0  itMISS:          0  dtACCESS:          0  dtHIT:          0  dtMISS:          0
cpu0_DTLB TRANSLATION  ACCESS:          0  HIT:          0  MISS:          0  iACCESS:          0  iHIT:          0  iMISS:          0  dACCESS:          0  dHIT:          0  dMISS:          0  itACCESS:          0  itHIT:          0  itMISS:          0  dtACCESS:          0  dtHIT:          0  dtMISS:          0
cpu0_DTLB PREFETCH  REQUESTED:          0  ISSUED:          0  CROSSED:          0  USEFUL:          0  USELESS:          0
cpu0_DTLB AVERAGE iMISS LATENCY: 0 cycles
cpu0_DTLB AVERAGE dMISS LATENCY: 14.3952 cycles
cpu0_DTLB AVERAGE itMISS LATENCY: 0 cycles
cpu0_DTLB AVERAGE dtMISS LATENCY: 0 cycles
cpu0_DTLB PAGE CROSSINGS (TLB HIT):         0 
cpu0_DTLB PAGE CROSSINGS (TLB MISS):         0 
cpu0_DTLB AVERAGE MISS LATENCY: 14.3952 cycles
cpu0_STLB TOTAL       ACCESS:    1639763  HIT:    1477646  MISS:     162117  iACCESS:     387417  iHIT:     330996  iMISS:      56421  dACCESS:    1252346  dHIT:    1146650  dMISS:     105696  itACCESS:          0  itHIT:          0  itMISS:          0  dtACCESS:          0  dtHIT:          0  dtMISS:          0
cpu0_STLB LOAD         ACCESS:    1639763  HIT:    1477646  MISS:     162117  iACCESS:     387417  iHIT:     330996  iMISS:      56421  dACCESS:    1252346  dHIT:    1146650  dMISS:     105696  itACCESS:          0  itHIT:          0  itMISS:          0  dtACCESS:          0  dtHIT:          0  dtMISS:          0
cpu0_STLB RFO          ACCESS:          0  HIT:          0  MISS:          0  iACCESS:          0  iHIT:          0  iMISS:          0  dACCESS:          0  dHIT:          0  dMISS:          0  itACCESS:          0  itHIT:          0  itMISS:          0  dtACCESS:          0  dtHIT:          0  dtMISS:          0
cpu0_STLB PREFETCH     ACCESS:          0  HIT:          0  MISS:          0  iACCESS:          0  iHIT:          0  iMISS:          0  dACCESS:          0  dHIT:          0  dMISS:          0  itACCESS:          0  itHIT:          0  itMISS:          0  dtACCESS:          0  dtHIT:          0  dtMISS:          0
cpu0_STLB WRITE        ACCESS:          0  HIT:          0  MISS:          0  iACCESS:          0  iHIT:          0  iMISS:          0  dACCESS:          0  dHIT:          0  dMISS:          0  itACCESS:          0  itHIT:          0  itMISS:          0  dtACCESS:          0  dtHIT:          0  dtMISS:          0
cpu0_STLB TRANSLATION  ACCESS:          0  HIT:          0  MISS:          0  iACCESS:          0  iHIT:          0  iMISS:          0  dACCESS:          0  dHIT:          0  dMISS:          0  itACCESS:          0  itHIT:          0  itMISS:          0  dtACCESS:          0  dtHIT:          0  dtMISS:          0
cpu0_STLB PREFETCH  REQUESTED:          0  ISSUED:          0  CROSSED:          0  USEFUL:          0  USELESS:          0
cpu0_STLB AVERAGE iMISS LATENCY: 39.4872 cycles
cpu0_STLB AVERAGE dMISS LATENCY: 120.62 cycles
cpu0_STLB AVERAGE itMISS LATENCY: 0 cycles
cpu0_STLB AVERAGE dtMISS LATENCY: 0 cycles
cpu0_STLB PAGE CROSSINGS (TLB HIT):         0 
cpu0_STLB PAGE CROSSINGS (TLB MISS):         0 
cpu0_STLB AVERAGE MISS LATENCY: 160.107 cycles
cpu0_L1D TOTAL       ACCESS:   41387571  HIT:   37864473  MISS:    3523098  iACCESS:          0  iHIT:          0  iMISS:          0  dACCESS:   41164226  dHIT:   37845439  dMISS:    3318787  itACCESS:      61195  itHIT:       9005  itMISS:      52190  dtACCESS:     162150  dtHIT:      10029  dtMISS:     152121
cpu0_L1D LOAD         ACCESS:   18911939  HIT:   17392899  MISS:    1519040  iACCESS:          0  iHIT:          0  iMISS:          0  dACCESS:   18911939  dHIT:   17392899  dMISS:    1519040  itACCESS:          0  itHIT:          0  itMISS:          0  dtACCESS:          0  dtHIT:          0  dtMISS:          0
cpu0_L1D RFO          ACCESS:          0  HIT:          0  MISS:          0  iACCESS:          0  iHIT:          0  iMISS:          0  dACCESS:          0  dHIT:          0  dMISS:          0  itACCESS:          0  itHIT:          0  itMISS:          0  dtACCESS:          0  dtHIT:          0  dtMISS:          0
cpu0_L1D PREFETCH     ACCESS:   12123562  HIT:   10764003  MISS:    1359559  iACCESS:          0  iHIT:          0  iMISS:          0  dACCESS:   12123562  dHIT:   10764003  dMISS:    1359559  itACCESS:          0  itHIT:          0  itMISS:          0  dtACCESS:          0  dtHIT:          0  dtMISS:          0
cpu0_L1D WRITE        ACCESS:   10128725  HIT:    9688537  MISS:     440188  iACCESS:          0  iHIT:          0  iMISS:          0  dACCESS:   10128725  dHIT:    9688537  dMISS:     440188  itACCESS:          0  itHIT:          0  itMISS:          0  dtACCESS:          0  dtHIT:          0  dtMISS:          0
cpu0_L1D TRANSLATION  ACCESS:     223345  HIT:      19034  MISS:     204311  iACCESS:          0  iHIT:          0  iMISS:          0  dACCESS:          0  dHIT:          0  dMISS:          0  itACCESS:      61195  itHIT:       9005  itMISS:      52190  dtACCESS:     162150  dtHIT:      10029  dtMISS:     152121
cpu0_L1D PREFETCH  REQUESTED:   18911939  ISSUED:   16920452  CROSSED:          0  USEFUL:     309539  USELESS:     707009
cpu0_L1D AVERAGE iMISS LATENCY: 0 cycles
cpu0_L1D AVERAGE dMISS LATENCY: 31.7111 cycles
cpu0_L1D AVERAGE itMISS LATENCY: 1.67689 cycles
cpu0_L1D AVERAGE dtMISS LATENCY: 4.9153 cycles
cpu0_L1D PAGE CROSSINGS (TLB HIT):         0 
cpu0_L1D PAGE CROSSINGS (TLB MISS):         0 
cpu0_L1D AVERAGE MISS LATENCY: 38.3033 cycles
cpu0_L2C TOTAL       ACCESS:    7019428  HIT:    4099231  MISS:    2920197  iACCESS:    3317023  iHIT:    2218925  iMISS:    1098098  dACCESS:    3510213  dHIT:    1853743  dMISS:    1656470  itACCESS:      52190  itHIT:       9893  itMISS:      42297  dtACCESS:     140002  dtHIT:      16670  dtMISS:     123332
cpu0_L2C LOAD         ACCESS:    1738827  HIT:    1049607  MISS:     689220  iACCESS:     797556  iHIT:     557226  iMISS:     240330  dACCESS:     941271  dHIT:     492381  dMISS:     448890  itACCESS:          0  itHIT:          0  itMISS:          0  dtACCESS:          0  dtHIT:          0  dtMISS:          0
cpu0_L2C RFO          ACCESS:     156172  HIT:      71073  MISS:      85099  iACCESS:          0  iHIT:          0  iMISS:          0  dACCESS:     156172  dHIT:      71073  dMISS:      85099  itACCESS:          0  itHIT:          0  itMISS:          0  dtACCESS:          0  dtHIT:          0  dtMISS:          0
cpu0_L2C PREFETCH     ACCESS:    4644649  HIT:    2665247  MISS:    1979402  iACCESS:    2519467  iHIT:    1661699  iMISS:     857768  dACCESS:    2125182  dHIT:    1003548  dMISS:    1121634  itACCESS:          0  itHIT:          0  itMISS:          0  dtACCESS:          0  dtHIT:          0  dtMISS:          0
cpu0_L2C WRITE        ACCESS:     287588  HIT:     286741  MISS:        847  iACCESS:          0  iHIT:          0  iMISS:          0  dACCESS:     287588  dHIT:     286741  dMISS:        847  itACCESS:          0  itHIT:          0  itMISS:          0  dtACCESS:          0  dtHIT:          0  dtMISS:          0
cpu0_L2C TRANSLATION  ACCESS:     192192  HIT:      26563  MISS:     165629  iACCESS:          0  iHIT:          0  iMISS:          0  dACCESS:          0  dHIT:          0  dMISS:          0  itACCESS:      52190  itHIT:       9893  itMISS:      42297  dtACCESS:     140002  dtHIT:      16670  dtMISS:     123332
cpu0_L2C PREFETCH  REQUESTED:    1392663  ISSUED:    1392663  CROSSED:          0  USEFUL:     313139  USELESS:     233462
cpu0_L2C AVERAGE iMISS LATENCY: 23.8742 cycles
cpu0_L2C AVERAGE dMISS LATENCY: 45.031 cycles
cpu0_L2C AVERAGE itMISS LATENCY: 1.84733 cycles
cpu0_L2C AVERAGE dtMISS LATENCY: 5.45255 cycles
cpu0_L2C PAGE CROSSINGS (TLB HIT):         0 
cpu0_L2C PAGE CROSSINGS (TLB MISS):         0 
cpu0_L2C AVERAGE MISS LATENCY: 76.205 cycles
LLC TOTAL       ACCESS:    2946593  HIT:    1882711  MISS:    1063882  iACCESS:    1040827  iHIT:     702441  iMISS:     338386  dACCESS:    1740137  dHIT:    1115855  dMISS:     624282  itACCESS:      42297  itHIT:      15442  itMISS:      26855  dtACCESS:     123332  dtHIT:      48973  dtMISS:      74359
LLC LOAD         ACCESS:     687676  HIT:     455267  MISS:     232409  iACCESS:     238939  iHIT:     162507  iMISS:      76432  dACCESS:     448737  dHIT:     292760  dMISS:     155977  itACCESS:          0  itHIT:          0  itMISS:          0  dtACCESS:          0  dtHIT:          0  dtMISS:          0
LLC RFO          ACCESS:      85099  HIT:      49661  MISS:      35438  iACCESS:          0  iHIT:          0  iMISS:          0  dACCESS:      85099  dHIT:      49661  dMISS:      35438  itACCESS:          0  itHIT:          0  itMISS:          0  dtACCESS:          0  dtHIT:          0  dtMISS:          0
LLC PREFETCH     ACCESS:    1872542  HIT:    1183806  MISS:     688736  iACCESS:     801888  iHIT:     539934  iMISS:     261954  dACCESS:    1070654  dHIT:     643872  dMISS:     426782  itACCESS:          0  itHIT:          0  itMISS:          0  dtACCESS:          0  dtHIT:          0  dtMISS:          0
LLC WRITE        ACCESS:     135647  HIT:     129562  MISS:       6085  iACCESS:          0  iHIT:          0  iMISS:          0  dACCESS:     135647  dHIT:     129562  dMISS:       6085  itACCESS:          0  itHIT:          0  itMISS:          0  dtACCESS:          0  dtHIT:          0  dtMISS:          0
LLC TRANSLATION  ACCESS:     165629  HIT:      64415  MISS:     101214  iACCESS:          0  iHIT:          0  iMISS:          0  dACCESS:          0  dHIT:          0  dMISS:          0  itACCESS:      42297  itHIT:      15442  itMISS:      26855  dtACCESS:     123332  dtHIT:      48973  dtMISS:      74359
LLC PREFETCH  REQUESTED:          0  ISSUED:          0  CROSSED:          0  USEFUL:          0  USELESS:          0
LLC AVERAGE iMISS LATENCY: 46.4967 cycles
LLC AVERAGE dMISS LATENCY: 94.3937 cycles
LLC AVERAGE itMISS LATENCY: 4.29189 cycles
LLC AVERAGE dtMISS LATENCY: 12.6997 cycles
LLC PAGE CROSSINGS (TLB HIT):         0 
LLC PAGE CROSSINGS (TLB MISS):         0 
LLC AVERAGE MISS LATENCY: 157.882 cycles

PageTableWalker TOTAL       ACCESS:      81357  
PageTableWalker AVERAGE LATENCY: 5.13832 cycles
PageTableWalker TOTAL LATENCY: 418038 cycles

DRAM Statistics
Channel 0
 RQ ROW_BUFFER_HIT:     275097
  ROW_BUFFER_MISS:     782641
 AVG DBUS CONGESTED CYCLE:    3.61217
 WQ ROW_BUFFER_HIT:      21541
  ROW_BUFFER_MISS:      21765  FULL:          0

