last_page:0x200000000000000
VMEM_RES_CAP:0x100000
PAGE_SIZE:4096
LOG2_PAGE_SIZE:12
LOG2_PAGE_TABLE_SIZE:9
page_table_levels:5
WARNING: physical memory size is smaller than virtual memory size
FDiP enabled with aggresivity 16

*** ChampSim Multicore Out-of-Order Simulator ***

Warmup Instructions: 50000000
Simulation Instructions: 100000000
Number of CPUs: 1
Small page size: 4096
Large page size: 2097152

CPU 0 Bimodal branch predictor
Basic BTB sets: 1024 ways: 8 indirect buffer size: 4096 RAS size: 64
Instruction page size distrubution: 0
Loading instruction page size distribution from /home/bsc/bsc018186/scratch/itp_asplos25_AE/dump/srv626_ap.pdst
Data page size distrubution: 0
Loading data page size distribution from /home/bsc/bsc018186/scratch/itp_asplos25_AE/dump/srv626_ap.pdst
cpu0_L2C IP-based stride prefetcher
cpu0_L1D next line prefetcher
cpu0_STLB using iTP with max lru@8
cpu0_STLB using iTP with instr@0 and data@2
Init sat counter with 3 bits (max:50).
cpu0_L1I next line prefetcher
Off-chip DRAM Size: 4 GiB Channels: 1 Width: 64-bit Data Rate: 3200 MT/s
Heartbeat CPU 0 instructions: 10000002 cycles: 2500151 heartbeat IPC: 3.99976 cumulative IPC: 3.99976 (Simulation time: 0 hr 0 min 38 sec) 
Heartbeat CPU 0 instructions: 20000001 cycles: 5000173 heartbeat IPC: 3.99997 cumulative IPC: 3.99987 (Simulation time: 0 hr 1 min 17 sec) 
Heartbeat CPU 0 instructions: 30000002 cycles: 7500175 heartbeat IPC: 4 cumulative IPC: 3.99991 (Simulation time: 0 hr 1 min 57 sec) 
Heartbeat CPU 0 instructions: 40000003 cycles: 10000224 heartbeat IPC: 3.99993 cumulative IPC: 3.99992 (Simulation time: 0 hr 2 min 37 sec) 
Heartbeat CPU 0 instructions: 50000002 cycles: 12500266 heartbeat IPC: 3.99994 cumulative IPC: 3.99992 (Simulation time: 0 hr 3 min 18 sec) 
Warmup finished CPU 0 instructions: 50000002 cycles: 12500267 cumulative IPC: 3.99992 (Simulation time: 0 hr 3 min 18 sec) 

Warmup complete CPU 0 instructions: 50000002 cycles: 12500267 (Simulation time: 0 hr 3 min 18 sec) 

Heartbeat CPU 0 instructions: 60000002 cycles: 26114560 heartbeat IPC: 0.734523 cumulative IPC: 0.734523 (Simulation time: 0 hr 4 min 21 sec) 
Heartbeat CPU 0 instructions: 70000002 cycles: 40590133 heartbeat IPC: 0.690819 cumulative IPC: 0.712001 (Simulation time: 0 hr 5 min 25 sec) 
Heartbeat CPU 0 instructions: 80000003 cycles: 54638491 heartbeat IPC: 0.711828 cumulative IPC: 0.711943 (Simulation time: 0 hr 6 min 29 sec) 
Heartbeat CPU 0 instructions: 90000001 cycles: 68192489 heartbeat IPC: 0.73779 cumulative IPC: 0.718234 (Simulation time: 0 hr 7 min 33 sec) 
Heartbeat CPU 0 instructions: 100000004 cycles: 82508082 heartbeat IPC: 0.69854 cumulative IPC: 0.714207 (Simulation time: 0 hr 8 min 37 sec) 
*** Reached end of trace: /gpfs/projects/bsc18/MN4/bsc18/romol/ChampSim/traces/qualcomm_srv/srv626_ap.champsimtrace.xz
Heartbeat CPU 0 instructions: 110000000 cycles: 96408796 heartbeat IPC: 0.719388 cumulative IPC: 0.715065 (Simulation time: 0 hr 9 min 40 sec) 
Heartbeat CPU 0 instructions: 120000000 cycles: 110698521 heartbeat IPC: 0.699804 cumulative IPC: 0.712844 (Simulation time: 0 hr 10 min 42 sec) 
Heartbeat CPU 0 instructions: 130000001 cycles: 124554520 heartbeat IPC: 0.72171 cumulative IPC: 0.71394 (Simulation time: 0 hr 11 min 42 sec) 
Heartbeat CPU 0 instructions: 140000004 cycles: 138206474 heartbeat IPC: 0.732497 cumulative IPC: 0.715956 (Simulation time: 0 hr 12 min 42 sec) 
Heartbeat CPU 0 instructions: 150000004 cycles: 151966773 heartbeat IPC: 0.726729 cumulative IPC: 0.717019 (Simulation time: 0 hr 13 min 41 sec) 
Simulation finished CPU 0 instructions: 100000002 cycles: 139466507 cumulative IPC: 0.717019 (Simulation time: 0 hr 13 min 41 sec) 

Simulation complete CPU 0 instructions: 100000002 cycles: 139466507 (Simulation time: 0 hr 13 min 41 sec) 


ChampSim completed all CPUs

Saving instructions large page distribution to /home/bsc/bsc018186/scratch/itp_asplos25_AE/dump/srv626_ap.pdst...
Saving data large page distribution to /home/bsc/bsc018186/scratch/itp_asplos25_AE/dump/srv626_ap.pdst...
=== Simulation ===
CPU 0 runs /gpfs/projects/bsc18/MN4/bsc18/romol/ChampSim/traces/qualcomm_srv/srv626_ap.champsimtrace.xz

Region of Interest Statistics

CPU 0 cumulative IPC: 0.717019 instructions: 100000002 cycles: 139466507
CPU 0 Branch Prediction Accuracy: 83.4866% MPKI: 29.6305 Average ROB Occupancy at Mispredict: 12.3839
Branch type MPKI
BRANCH_DIRECT_JUMP: 0.94594
BRANCH_INDIRECT: 15.3924
BRANCH_CONDITIONAL: 9.68539
BRANCH_DIRECT_CALL: 1.80388
BRANCH_INDIRECT_CALL: 0.49011
BRANCH_RETURN: 1.31273

Instructions large pages: 0
Instructions small pages: 9702
Large page distribution for instructions: 0%

Data large pages: 0
Data small pages: 8873
Large page distribution for data: 0%

cpu0_L1I TOTAL       ACCESS:   35015869  HIT:   26527378  MISS:    8488491  iACCESS:   35015869  iHIT:   26527378  iMISS:    8488491  dACCESS:          0  dHIT:          0  dMISS:          0  itACCESS:          0  itHIT:          0  itMISS:          0  dtACCESS:          0  dtHIT:          0  dtMISS:          0
cpu0_L1I LOAD         ACCESS:   10218011  HIT:    7835522  MISS:    2382489  iACCESS:   10218011  iHIT:    7835522  iMISS:    2382489  dACCESS:          0  dHIT:          0  dMISS:          0  itACCESS:          0  itHIT:          0  itMISS:          0  dtACCESS:          0  dtHIT:          0  dtMISS:          0
cpu0_L1I RFO          ACCESS:          0  HIT:          0  MISS:          0  iACCESS:          0  iHIT:          0  iMISS:          0  dACCESS:          0  dHIT:          0  dMISS:          0  itACCESS:          0  itHIT:          0  itMISS:          0  dtACCESS:          0  dtHIT:          0  dtMISS:          0
cpu0_L1I PREFETCH     ACCESS:   24797858  HIT:   18691856  MISS:    6106002  iACCESS:   24797858  iHIT:   18691856  iMISS:    6106002  dACCESS:          0  dHIT:          0  dMISS:          0  itACCESS:          0  itHIT:          0  itMISS:          0  dtACCESS:          0  dtHIT:          0  dtMISS:          0
cpu0_L1I WRITE        ACCESS:          0  HIT:          0  MISS:          0  iACCESS:          0  iHIT:          0  iMISS:          0  dACCESS:          0  dHIT:          0  dMISS:          0  itACCESS:          0  itHIT:          0  itMISS:          0  dtACCESS:          0  dtHIT:          0  dtMISS:          0
cpu0_L1I TRANSLATION  ACCESS:          0  HIT:          0  MISS:          0  iACCESS:          0  iHIT:          0  iMISS:          0  dACCESS:          0  dHIT:          0  dMISS:          0  itACCESS:          0  itHIT:          0  itMISS:          0  dtACCESS:          0  dtHIT:          0  dtMISS:          0
cpu0_L1I PREFETCH  REQUESTED:   27090871  ISSUED:   27088614  CROSSED:          0  USEFUL:    1935869  USELESS:     633716
cpu0_L1I AVERAGE iMISS LATENCY: 13.2506 cycles
cpu0_L1I AVERAGE dMISS LATENCY: 0 cycles
cpu0_L1I AVERAGE itMISS LATENCY: 0 cycles
cpu0_L1I AVERAGE dtMISS LATENCY: 0 cycles
cpu0_L1I PAGE CROSSINGS (TLB HIT):         0 
cpu0_L1I PAGE CROSSINGS (TLB MISS):         0 
cpu0_L1I AVERAGE MISS LATENCY: 13.2506 cycles
cpu0_ITLB TOTAL       ACCESS:   28993821  HIT:   27014624  MISS:    1979197  iACCESS:   28993821  iHIT:   27014624  iMISS:    1979197  dACCESS:          0  dHIT:          0  dMISS:          0  itACCESS:          0  itHIT:          0  itMISS:          0  dtACCESS:          0  dtHIT:          0  dtMISS:          0
cpu0_ITLB LOAD         ACCESS:   28993821  HIT:   27014624  MISS:    1979197  iACCESS:   28993821  iHIT:   27014624  iMISS:    1979197  dACCESS:          0  dHIT:          0  dMISS:          0  itACCESS:          0  itHIT:          0  itMISS:          0  dtACCESS:          0  dtHIT:          0  dtMISS:          0
cpu0_ITLB RFO          ACCESS:          0  HIT:          0  MISS:          0  iACCESS:          0  iHIT:          0  iMISS:          0  dACCESS:          0  dHIT:          0  dMISS:          0  itACCESS:          0  itHIT:          0  itMISS:          0  dtACCESS:          0  dtHIT:          0  dtMISS:          0
cpu0_ITLB PREFETCH     ACCESS:          0  HIT:          0  MISS:          0  iACCESS:          0  iHIT:          0  iMISS:          0  dACCESS:          0  dHIT:          0  dMISS:          0  itACCESS:          0  itHIT:          0  itMISS:          0  dtACCESS:          0  dtHIT:          0  dtMISS:          0
cpu0_ITLB WRITE        ACCESS:          0  HIT:          0  MISS:          0  iACCESS:          0  iHIT:          0  iMISS:          0  dACCESS:          0  dHIT:          0  dMISS:          0  itACCESS:          0  itHIT:          0  itMISS:          0  dtACCESS:          0  dtHIT:          0  dtMISS:          0
cpu0_ITLB TRANSLATION  ACCESS:          0  HIT:          0  MISS:          0  iACCESS:          0  iHIT:          0  iMISS:          0  dACCESS:          0  dHIT:          0  dMISS:          0  itACCESS:          0  itHIT:          0  itMISS:          0  dtACCESS:          0  dtHIT:          0  dtMISS:          0
cpu0_ITLB PREFETCH  REQUESTED:          0  ISSUED:          0  CROSSED:          0  USEFUL:     325219  USELESS:      62123
cpu0_ITLB AVERAGE iMISS LATENCY: 1.76957 cycles
cpu0_ITLB AVERAGE dMISS LATENCY: 0 cycles
cpu0_ITLB AVERAGE itMISS LATENCY: 0 cycles
cpu0_ITLB AVERAGE dtMISS LATENCY: 0 cycles
cpu0_ITLB PAGE CROSSINGS (TLB HIT):         0 
cpu0_ITLB PAGE CROSSINGS (TLB MISS):         0 
cpu0_ITLB AVERAGE MISS LATENCY: 1.76957 cycles
cpu0_DTLB TOTAL       ACCESS:   27702059  HIT:   25658740  MISS:    2043319  iACCESS:          0  iHIT:          0  iMISS:          0  dACCESS:   27702059  dHIT:   25658740  dMISS:    2043319  itACCESS:          0  itHIT:          0  itMISS:          0  dtACCESS:          0  dtHIT:          0  dtMISS:          0
cpu0_DTLB LOAD         ACCESS:   27702059  HIT:   25658740  MISS:    2043319  iACCESS:          0  iHIT:          0  iMISS:          0  dACCESS:   27702059  dHIT:   25658740  dMISS:    2043319  itACCESS:          0  itHIT:          0  itMISS:          0  dtACCESS:          0  dtHIT:          0  dtMISS:          0
cpu0_DTLB RFO          ACCESS:          0  HIT:          0  MISS:          0  iACCESS:          0  iHIT:          0  iMISS:          0  dACCESS:          0  dHIT:          0  dMISS:          0  itACCESS:          0  itHIT:          0  itMISS:          0  dtACCESS:          0  dtHIT:          0  dtMISS:          0
cpu0_DTLB PREFETCH     ACCESS:          0  HIT:          0  MISS:          0  iACCESS:          0  iHIT:          0  iMISS:          0  dACCESS:          0  dHIT:          0  dMISS:          0  itACCESS:          0  itHIT:          0  itMISS:          0  dtACCESS:          0  dtHIT:          0  dtMISS:          0
cpu0_DTLB WRITE        ACCESS:          0  HIT:          0  MISS:          0  iACCESS:          0  iHIT:          0  iMISS:          0  dACCESS:          0  dHIT:          0  dMISS:          0  itACCESS:          0  itHIT:          0  itMISS:          0  dtACCESS:          0  dtHIT:          0  dtMISS:          0
cpu0_DTLB TRANSLATION  ACCESS:          0  HIT:          0  MISS:          0  iACCESS:          0  iHIT:          0  iMISS:          0  dACCESS:          0  dHIT:          0  dMISS:          0  itACCESS:          0  itHIT:          0  itMISS:          0  dtACCESS:          0  dtHIT:          0  dtMISS:          0
cpu0_DTLB PREFETCH  REQUESTED:          0  ISSUED:          0  CROSSED:          0  USEFUL:          0  USELESS:          0
cpu0_DTLB AVERAGE iMISS LATENCY: 0 cycles
cpu0_DTLB AVERAGE dMISS LATENCY: 11.045 cycles
cpu0_DTLB AVERAGE itMISS LATENCY: 0 cycles
cpu0_DTLB AVERAGE dtMISS LATENCY: 0 cycles
cpu0_DTLB PAGE CROSSINGS (TLB HIT):         0 
cpu0_DTLB PAGE CROSSINGS (TLB MISS):         0 
cpu0_DTLB AVERAGE MISS LATENCY: 11.045 cycles
cpu0_STLB TOTAL       ACCESS:    1639515  HIT:    1509746  MISS:     129769  iACCESS:     387495  iHIT:     382182  iMISS:       5313  dACCESS:    1252020  dHIT:    1127564  dMISS:     124456  itACCESS:          0  itHIT:          0  itMISS:          0  dtACCESS:          0  dtHIT:          0  dtMISS:          0
cpu0_STLB LOAD         ACCESS:    1639515  HIT:    1509746  MISS:     129769  iACCESS:     387495  iHIT:     382182  iMISS:       5313  dACCESS:    1252020  dHIT:    1127564  dMISS:     124456  itACCESS:          0  itHIT:          0  itMISS:          0  dtACCESS:          0  dtHIT:          0  dtMISS:          0
cpu0_STLB RFO          ACCESS:          0  HIT:          0  MISS:          0  iACCESS:          0  iHIT:          0  iMISS:          0  dACCESS:          0  dHIT:          0  dMISS:          0  itACCESS:          0  itHIT:          0  itMISS:          0  dtACCESS:          0  dtHIT:          0  dtMISS:          0
cpu0_STLB PREFETCH     ACCESS:          0  HIT:          0  MISS:          0  iACCESS:          0  iHIT:          0  iMISS:          0  dACCESS:          0  dHIT:          0  dMISS:          0  itACCESS:          0  itHIT:          0  itMISS:          0  dtACCESS:          0  dtHIT:          0  dtMISS:          0
cpu0_STLB WRITE        ACCESS:          0  HIT:          0  MISS:          0  iACCESS:          0  iHIT:          0  iMISS:          0  dACCESS:          0  dHIT:          0  dMISS:          0  itACCESS:          0  itHIT:          0  itMISS:          0  dtACCESS:          0  dtHIT:          0  dtMISS:          0
cpu0_STLB TRANSLATION  ACCESS:          0  HIT:          0  MISS:          0  iACCESS:          0  iHIT:          0  iMISS:          0  dACCESS:          0  dHIT:          0  dMISS:          0  itACCESS:          0  itHIT:          0  itMISS:          0  dtACCESS:          0  dtHIT:          0  dtMISS:          0
cpu0_STLB PREFETCH  REQUESTED:          0  ISSUED:          0  CROSSED:          0  USEFUL:          0  USELESS:          0
cpu0_STLB AVERAGE iMISS LATENCY: 3.85568 cycles
cpu0_STLB AVERAGE dMISS LATENCY: 96.9528 cycles
cpu0_STLB AVERAGE itMISS LATENCY: 0 cycles
cpu0_STLB AVERAGE dtMISS LATENCY: 0 cycles
cpu0_STLB PAGE CROSSINGS (TLB HIT):         0 
cpu0_STLB PAGE CROSSINGS (TLB MISS):         0 
cpu0_STLB AVERAGE MISS LATENCY: 100.809 cycles
cpu0_L1D TOTAL       ACCESS:   41385244  HIT:   37906115  MISS:    3479129  iACCESS:          0  iHIT:          0  iMISS:          0  dACCESS:   41187279  dHIT:   37894749  dMISS:    3292530  itACCESS:       6458  itHIT:        543  itMISS:       5915  dtACCESS:     191507  dtHIT:      10823  dtMISS:     180684
cpu0_L1D LOAD         ACCESS:   18925756  HIT:   17413560  MISS:    1512196  iACCESS:          0  iHIT:          0  iMISS:          0  dACCESS:   18925756  dHIT:   17413560  dMISS:    1512196  itACCESS:          0  itHIT:          0  itMISS:          0  dtACCESS:          0  dtHIT:          0  dtMISS:          0
cpu0_L1D RFO          ACCESS:          0  HIT:          0  MISS:          0  iACCESS:          0  iHIT:          0  iMISS:          0  dACCESS:          0  dHIT:          0  dMISS:          0  itACCESS:          0  itHIT:          0  itMISS:          0  dtACCESS:          0  dtHIT:          0  dtMISS:          0
cpu0_L1D PREFETCH     ACCESS:   12146916  HIT:   10787397  MISS:    1359519  iACCESS:          0  iHIT:          0  iMISS:          0  dACCESS:   12146916  dHIT:   10787397  dMISS:    1359519  itACCESS:          0  itHIT:          0  itMISS:          0  dtACCESS:          0  dtHIT:          0  dtMISS:          0
cpu0_L1D WRITE        ACCESS:   10114607  HIT:    9693792  MISS:     420815  iACCESS:          0  iHIT:          0  iMISS:          0  dACCESS:   10114607  dHIT:    9693792  dMISS:     420815  itACCESS:          0  itHIT:          0  itMISS:          0  dtACCESS:          0  dtHIT:          0  dtMISS:          0
cpu0_L1D TRANSLATION  ACCESS:     197965  HIT:      11366  MISS:     186599  iACCESS:          0  iHIT:          0  iMISS:          0  dACCESS:          0  dHIT:          0  dMISS:          0  itACCESS:       6458  itHIT:        543  itMISS:       5915  dtACCESS:     191507  dtHIT:      10823  dtMISS:     180684
cpu0_L1D PREFETCH  REQUESTED:   18925756  ISSUED:   16961109  CROSSED:          0  USEFUL:     308650  USELESS:     707474
cpu0_L1D AVERAGE iMISS LATENCY: 0 cycles
cpu0_L1D AVERAGE dMISS LATENCY: 32.8595 cycles
cpu0_L1D AVERAGE itMISS LATENCY: 0.127358 cycles
cpu0_L1D AVERAGE dtMISS LATENCY: 2.90142 cycles
cpu0_L1D PAGE CROSSINGS (TLB HIT):         0 
cpu0_L1D PAGE CROSSINGS (TLB MISS):         0 
cpu0_L1D AVERAGE MISS LATENCY: 35.8883 cycles
cpu0_L2C TOTAL       ACCESS:    6998465  HIT:    1701419  MISS:    5297046  iACCESS:    3320146  iHIT:     860195  iMISS:    2459951  dACCESS:    3505172  dHIT:     747947  dMISS:    2757225  itACCESS:       5915  itHIT:       3087  itMISS:       2828  dtACCESS:     167232  dtHIT:      90190  dtMISS:      77042
cpu0_L2C LOAD         ACCESS:    1730949  HIT:     326208  MISS:    1404741  iACCESS:     789792  iHIT:     153381  iMISS:     636411  dACCESS:     941157  dHIT:     172827  dMISS:     768330  itACCESS:          0  itHIT:          0  itMISS:          0  dtACCESS:          0  dtHIT:          0  dtMISS:          0
cpu0_L2C RFO          ACCESS:     155247  HIT:      53700  MISS:     101547  iACCESS:          0  iHIT:          0  iMISS:          0  dACCESS:     155247  dHIT:      53700  dMISS:     101547  itACCESS:          0  itHIT:          0  itMISS:          0  dtACCESS:          0  dtHIT:          0  dtMISS:          0
cpu0_L2C PREFETCH     ACCESS:    4653266  HIT:    1081750  MISS:    3571516  iACCESS:    2530354  iHIT:     706814  iMISS:    1823540  dACCESS:    2122912  dHIT:     374936  dMISS:    1747976  itACCESS:          0  itHIT:          0  itMISS:          0  dtACCESS:          0  dtHIT:          0  dtMISS:          0
cpu0_L2C WRITE        ACCESS:     285856  HIT:     146484  MISS:     139372  iACCESS:          0  iHIT:          0  iMISS:          0  dACCESS:     285856  dHIT:     146484  dMISS:     139372  itACCESS:          0  itHIT:          0  itMISS:          0  dtACCESS:          0  dtHIT:          0  dtMISS:          0
cpu0_L2C TRANSLATION  ACCESS:     173147  HIT:      93277  MISS:      79870  iACCESS:          0  iHIT:          0  iMISS:          0  dACCESS:          0  dHIT:          0  dMISS:          0  itACCESS:       5915  itHIT:       3087  itMISS:       2828  dtACCESS:     167232  dtHIT:      90190  dtMISS:      77042
cpu0_L2C PREFETCH  REQUESTED:    1396651  ISSUED:    1396651  CROSSED:          0  USEFUL:     399858  USELESS:     380473
cpu0_L2C AVERAGE iMISS LATENCY: 15.427 cycles
cpu0_L2C AVERAGE dMISS LATENCY: 25.0422 cycles
cpu0_L2C AVERAGE itMISS LATENCY: 0.0730421 cycles
cpu0_L2C AVERAGE dtMISS LATENCY: 1.60516 cycles
cpu0_L2C PAGE CROSSINGS (TLB HIT):         0 
cpu0_L2C PAGE CROSSINGS (TLB MISS):         0 
cpu0_L2C AVERAGE MISS LATENCY: 42.1474 cycles
LLC TOTAL       ACCESS:    5167491  HIT:    4361730  MISS:     805761  iACCESS:    2400291  iHIT:    2158429  iMISS:     241862  dACCESS:    2687330  dHIT:    2164491  dMISS:     522839  itACCESS:       2828  itHIT:        933  itMISS:       1895  dtACCESS:      77042  dtHIT:      37877  dtMISS:      39165
LLC LOAD         ACCESS:    1402587  HIT:    1224953  MISS:     177634  iACCESS:     634664  iHIT:     582921  iMISS:      51743  dACCESS:     767923  dHIT:     642032  dMISS:     125891  itACCESS:          0  itHIT:          0  itMISS:          0  dtACCESS:          0  dtHIT:          0  dtMISS:          0
LLC RFO          ACCESS:     101547  HIT:      66778  MISS:      34769  iACCESS:          0  iHIT:          0  iMISS:          0  dACCESS:     101547  dHIT:      66778  dMISS:      34769  itACCESS:          0  itHIT:          0  itMISS:          0  dtACCESS:          0  dtHIT:          0  dtMISS:          0
LLC PREFETCH     ACCESS:    3460114  HIT:    2916395  MISS:     543719  iACCESS:    1765627  iHIT:    1575508  iMISS:     190119  dACCESS:    1694487  dHIT:    1340887  dMISS:     353600  itACCESS:          0  itHIT:          0  itMISS:          0  dtACCESS:          0  dtHIT:          0  dtMISS:          0
LLC WRITE        ACCESS:     123373  HIT:     114794  MISS:       8579  iACCESS:          0  iHIT:          0  iMISS:          0  dACCESS:     123373  dHIT:     114794  dMISS:       8579  itACCESS:          0  itHIT:          0  itMISS:          0  dtACCESS:          0  dtHIT:          0  dtMISS:          0
LLC TRANSLATION  ACCESS:      79870  HIT:      38810  MISS:      41060  iACCESS:          0  iHIT:          0  iMISS:          0  dACCESS:          0  dHIT:          0  dMISS:          0  itACCESS:       2828  itHIT:        933  itMISS:       1895  dtACCESS:      77042  dtHIT:      37877  dtMISS:      39165
LLC PREFETCH  REQUESTED:          0  ISSUED:          0  CROSSED:          0  USEFUL:          0  USELESS:          0
LLC AVERAGE iMISS LATENCY: 43.9261 cycles
LLC AVERAGE dMISS LATENCY: 103.09 cycles
LLC AVERAGE itMISS LATENCY: 0.411322 cycles
LLC AVERAGE dtMISS LATENCY: 8.68735 cycles
LLC PAGE CROSSINGS (TLB HIT):         0 
LLC PAGE CROSSINGS (TLB MISS):         0 
LLC AVERAGE MISS LATENCY: 156.114 cycles

PageTableWalker TOTAL       ACCESS:      65071  
PageTableWalker AVERAGE LATENCY: 5.02788 cycles
PageTableWalker TOTAL LATENCY: 327169 cycles

DRAM Statistics
Channel 0
 RQ ROW_BUFFER_HIT:     216388
  ROW_BUFFER_MISS:     580763
 AVG DBUS CONGESTED CYCLE:    3.61731
 WQ ROW_BUFFER_HIT:      15270
  ROW_BUFFER_MISS:      20186  FULL:          0

