last_page:0x200000000000000
VMEM_RES_CAP:0x100000
PAGE_SIZE:4096
LOG2_PAGE_SIZE:12
LOG2_PAGE_TABLE_SIZE:9
page_table_levels:5
WARNING: physical memory size is smaller than virtual memory size
FDiP enabled with aggresivity 16

*** ChampSim Multicore Out-of-Order Simulator ***

Warmup Instructions: 50000000
Simulation Instructions: 100000000
Number of CPUs: 1
Small page size: 4096
Large page size: 2097152

CPU 0 Bimodal branch predictor
Basic BTB sets: 1024 ways: 8 indirect buffer size: 4096 RAS size: 64
Instruction page size distrubution: 0
Loading instruction page size distribution from /home/bsc/bsc018186/scratch/itp_asplos25_AE/dump/srv675_ap.pdst
Data page size distrubution: 0
Loading data page size distribution from /home/bsc/bsc018186/scratch/itp_asplos25_AE/dump/srv675_ap.pdst
cpu0_L2C IP-based stride prefetcher
cpu0_L1D next line prefetcher
cpu0_L1I next line prefetcher
Off-chip DRAM Size: 4 GiB Channels: 1 Width: 64-bit Data Rate: 3200 MT/s
Heartbeat CPU 0 instructions: 10000002 cycles: 2500156 heartbeat IPC: 3.99976 cumulative IPC: 3.99976 (Simulation time: 0 hr 0 min 38 sec) 
Heartbeat CPU 0 instructions: 20000002 cycles: 5000156 heartbeat IPC: 4 cumulative IPC: 3.99988 (Simulation time: 0 hr 1 min 19 sec) 
Heartbeat CPU 0 instructions: 30000000 cycles: 7500265 heartbeat IPC: 3.99983 cumulative IPC: 3.99986 (Simulation time: 0 hr 2 min 0 sec) 
Heartbeat CPU 0 instructions: 40000002 cycles: 10000335 heartbeat IPC: 3.99989 cumulative IPC: 3.99987 (Simulation time: 0 hr 2 min 42 sec) 
Heartbeat CPU 0 instructions: 50000000 cycles: 12501946 heartbeat IPC: 3.99743 cumulative IPC: 3.99938 (Simulation time: 0 hr 3 min 23 sec) 
Warmup finished CPU 0 instructions: 50000000 cycles: 12501947 cumulative IPC: 3.99938 (Simulation time: 0 hr 3 min 23 sec) 

Warmup complete CPU 0 instructions: 50000000 cycles: 12501947 (Simulation time: 0 hr 3 min 23 sec) 

Heartbeat CPU 0 instructions: 60000000 cycles: 26350680 heartbeat IPC: 0.722088 cumulative IPC: 0.722088 (Simulation time: 0 hr 4 min 28 sec) 
Heartbeat CPU 0 instructions: 70000000 cycles: 40735339 heartbeat IPC: 0.695186 cumulative IPC: 0.708382 (Simulation time: 0 hr 5 min 35 sec) 
Heartbeat CPU 0 instructions: 80000004 cycles: 54571966 heartbeat IPC: 0.72272 cumulative IPC: 0.713097 (Simulation time: 0 hr 6 min 40 sec) 
Heartbeat CPU 0 instructions: 90000004 cycles: 68460310 heartbeat IPC: 0.720029 cumulative IPC: 0.714818 (Simulation time: 0 hr 7 min 45 sec) 
Heartbeat CPU 0 instructions: 100000002 cycles: 81776077 heartbeat IPC: 0.75099 cumulative IPC: 0.721771 (Simulation time: 0 hr 8 min 50 sec) 
*** Reached end of trace: /gpfs/projects/bsc18/MN4/bsc18/romol/ChampSim/traces/qualcomm_srv/srv675_ap.champsimtrace.xz
Heartbeat CPU 0 instructions: 110000001 cycles: 95507571 heartbeat IPC: 0.728253 cumulative IPC: 0.722843 (Simulation time: 0 hr 9 min 55 sec) 
Heartbeat CPU 0 instructions: 120000000 cycles: 108994177 heartbeat IPC: 0.741477 cumulative IPC: 0.725448 (Simulation time: 0 hr 10 min 59 sec) 
Heartbeat CPU 0 instructions: 130000000 cycles: 122532917 heartbeat IPC: 0.738622 cumulative IPC: 0.727069 (Simulation time: 0 hr 12 min 4 sec) 
Heartbeat CPU 0 instructions: 140000000 cycles: 136026146 heartbeat IPC: 0.741113 cumulative IPC: 0.728603 (Simulation time: 0 hr 13 min 9 sec) 
Heartbeat CPU 0 instructions: 150000001 cycles: 149664644 heartbeat IPC: 0.733219 cumulative IPC: 0.729062 (Simulation time: 0 hr 14 min 14 sec) 
Simulation finished CPU 0 instructions: 100000001 cycles: 137162698 cumulative IPC: 0.729062 (Simulation time: 0 hr 14 min 14 sec) 

Simulation complete CPU 0 instructions: 100000001 cycles: 137162698 (Simulation time: 0 hr 14 min 14 sec) 


ChampSim completed all CPUs

Saving instructions large page distribution to /home/bsc/bsc018186/scratch/itp_asplos25_AE/dump/srv675_ap.pdst...
Saving data large page distribution to /home/bsc/bsc018186/scratch/itp_asplos25_AE/dump/srv675_ap.pdst...
=== Simulation ===
CPU 0 runs /gpfs/projects/bsc18/MN4/bsc18/romol/ChampSim/traces/qualcomm_srv/srv675_ap.champsimtrace.xz

Region of Interest Statistics

CPU 0 cumulative IPC: 0.729062 instructions: 100000001 cycles: 137162698
CPU 0 Branch Prediction Accuracy: 83.474% MPKI: 29.6585 Average ROB Occupancy at Mispredict: 12.3504
Branch type MPKI
BRANCH_DIRECT_JUMP: 0.94247
BRANCH_INDIRECT: 15.3874
BRANCH_CONDITIONAL: 9.71211
BRANCH_DIRECT_CALL: 1.80423
BRANCH_INDIRECT_CALL: 0.49851
BRANCH_RETURN: 1.31372

Instructions large pages: 0
Instructions small pages: 10164
Large page distribution for instructions: 0%

Data large pages: 0
Data small pages: 9227
Large page distribution for data: 0%

cpu0_L1I TOTAL       ACCESS:   35035962  HIT:   26532979  MISS:    8502983  iACCESS:   35035962  iHIT:   26532979  iMISS:    8502983  dACCESS:          0  dHIT:          0  dMISS:          0  itACCESS:          0  itHIT:          0  itMISS:          0  dtACCESS:          0  dtHIT:          0  dtMISS:          0
cpu0_L1I LOAD         ACCESS:   10218709  HIT:    7835368  MISS:    2383341  iACCESS:   10218709  iHIT:    7835368  iMISS:    2383341  dACCESS:          0  dHIT:          0  dMISS:          0  itACCESS:          0  itHIT:          0  itMISS:          0  dtACCESS:          0  dtHIT:          0  dtMISS:          0
cpu0_L1I RFO          ACCESS:          0  HIT:          0  MISS:          0  iACCESS:          0  iHIT:          0  iMISS:          0  dACCESS:          0  dHIT:          0  dMISS:          0  itACCESS:          0  itHIT:          0  itMISS:          0  dtACCESS:          0  dtHIT:          0  dtMISS:          0
cpu0_L1I PREFETCH     ACCESS:   24817253  HIT:   18697611  MISS:    6119642  iACCESS:   24817253  iHIT:   18697611  iMISS:    6119642  dACCESS:          0  dHIT:          0  dMISS:          0  itACCESS:          0  itHIT:          0  itMISS:          0  dtACCESS:          0  dtHIT:          0  dtMISS:          0
cpu0_L1I WRITE        ACCESS:          0  HIT:          0  MISS:          0  iACCESS:          0  iHIT:          0  iMISS:          0  dACCESS:          0  dHIT:          0  dMISS:          0  itACCESS:          0  itHIT:          0  itMISS:          0  dtACCESS:          0  dtHIT:          0  dtMISS:          0
cpu0_L1I TRANSLATION  ACCESS:          0  HIT:          0  MISS:          0  iACCESS:          0  iHIT:          0  iMISS:          0  dACCESS:          0  dHIT:          0  dMISS:          0  itACCESS:          0  itHIT:          0  itMISS:          0  dtACCESS:          0  dtHIT:          0  dtMISS:          0
cpu0_L1I PREFETCH  REQUESTED:   27093548  ISSUED:   27091607  CROSSED:          0  USEFUL:    1931877  USELESS:     634936
cpu0_L1I AVERAGE iMISS LATENCY: 12.8226 cycles
cpu0_L1I AVERAGE dMISS LATENCY: 0 cycles
cpu0_L1I AVERAGE itMISS LATENCY: 0 cycles
cpu0_L1I AVERAGE dtMISS LATENCY: 0 cycles
cpu0_L1I PAGE CROSSINGS (TLB HIT):         0 
cpu0_L1I PAGE CROSSINGS (TLB MISS):         0 
cpu0_L1I AVERAGE MISS LATENCY: 12.8226 cycles
cpu0_ITLB TOTAL       ACCESS:   28999941  HIT:   27011283  MISS:    1988658  iACCESS:   28999941  iHIT:   27011283  iMISS:    1988658  dACCESS:          0  dHIT:          0  dMISS:          0  itACCESS:          0  itHIT:          0  itMISS:          0  dtACCESS:          0  dtHIT:          0  dtMISS:          0
cpu0_ITLB LOAD         ACCESS:   28999941  HIT:   27011283  MISS:    1988658  iACCESS:   28999941  iHIT:   27011283  iMISS:    1988658  dACCESS:          0  dHIT:          0  dMISS:          0  itACCESS:          0  itHIT:          0  itMISS:          0  dtACCESS:          0  dtHIT:          0  dtMISS:          0
cpu0_ITLB RFO          ACCESS:          0  HIT:          0  MISS:          0  iACCESS:          0  iHIT:          0  iMISS:          0  dACCESS:          0  dHIT:          0  dMISS:          0  itACCESS:          0  itHIT:          0  itMISS:          0  dtACCESS:          0  dtHIT:          0  dtMISS:          0
cpu0_ITLB PREFETCH     ACCESS:          0  HIT:          0  MISS:          0  iACCESS:          0  iHIT:          0  iMISS:          0  dACCESS:          0  dHIT:          0  dMISS:          0  itACCESS:          0  itHIT:          0  itMISS:          0  dtACCESS:          0  dtHIT:          0  dtMISS:          0
cpu0_ITLB WRITE        ACCESS:          0  HIT:          0  MISS:          0  iACCESS:          0  iHIT:          0  iMISS:          0  dACCESS:          0  dHIT:          0  dMISS:          0  itACCESS:          0  itHIT:          0  itMISS:          0  dtACCESS:          0  dtHIT:          0  dtMISS:          0
cpu0_ITLB TRANSLATION  ACCESS:          0  HIT:          0  MISS:          0  iACCESS:          0  iHIT:          0  iMISS:          0  dACCESS:          0  dHIT:          0  dMISS:          0  itACCESS:          0  itHIT:          0  itMISS:          0  dtACCESS:          0  dtHIT:          0  dtMISS:          0
cpu0_ITLB PREFETCH  REQUESTED:          0  ISSUED:          0  CROSSED:          0  USEFUL:     325587  USELESS:      62421
cpu0_ITLB AVERAGE iMISS LATENCY: 2.92713 cycles
cpu0_ITLB AVERAGE dMISS LATENCY: 0 cycles
cpu0_ITLB AVERAGE itMISS LATENCY: 0 cycles
cpu0_ITLB AVERAGE dtMISS LATENCY: 0 cycles
cpu0_ITLB PAGE CROSSINGS (TLB HIT):         0 
cpu0_ITLB PAGE CROSSINGS (TLB MISS):         0 
cpu0_ITLB AVERAGE MISS LATENCY: 2.92713 cycles
cpu0_DTLB TOTAL       ACCESS:   27735732  HIT:   25650970  MISS:    2084762  iACCESS:          0  iHIT:          0  iMISS:          0  dACCESS:   27735732  dHIT:   25650970  dMISS:    2084762  itACCESS:          0  itHIT:          0  itMISS:          0  dtACCESS:          0  dtHIT:          0  dtMISS:          0
cpu0_DTLB LOAD         ACCESS:   27735732  HIT:   25650970  MISS:    2084762  iACCESS:          0  iHIT:          0  iMISS:          0  dACCESS:   27735732  dHIT:   25650970  dMISS:    2084762  itACCESS:          0  itHIT:          0  itMISS:          0  dtACCESS:          0  dtHIT:          0  dtMISS:          0
cpu0_DTLB RFO          ACCESS:          0  HIT:          0  MISS:          0  iACCESS:          0  iHIT:          0  iMISS:          0  dACCESS:          0  dHIT:          0  dMISS:          0  itACCESS:          0  itHIT:          0  itMISS:          0  dtACCESS:          0  dtHIT:          0  dtMISS:          0
cpu0_DTLB PREFETCH     ACCESS:          0  HIT:          0  MISS:          0  iACCESS:          0  iHIT:          0  iMISS:          0  dACCESS:          0  dHIT:          0  dMISS:          0  itACCESS:          0  itHIT:          0  itMISS:          0  dtACCESS:          0  dtHIT:          0  dtMISS:          0
cpu0_DTLB WRITE        ACCESS:          0  HIT:          0  MISS:          0  iACCESS:          0  iHIT:          0  iMISS:          0  dACCESS:          0  dHIT:          0  dMISS:          0  itACCESS:          0  itHIT:          0  itMISS:          0  dtACCESS:          0  dtHIT:          0  dtMISS:          0
cpu0_DTLB TRANSLATION  ACCESS:          0  HIT:          0  MISS:          0  iACCESS:          0  iHIT:          0  iMISS:          0  dACCESS:          0  dHIT:          0  dMISS:          0  itACCESS:          0  itHIT:          0  itMISS:          0  dtACCESS:          0  dtHIT:          0  dtMISS:          0
cpu0_DTLB PREFETCH  REQUESTED:          0  ISSUED:          0  CROSSED:          0  USEFUL:          0  USELESS:          0
cpu0_DTLB AVERAGE iMISS LATENCY: 0 cycles
cpu0_DTLB AVERAGE dMISS LATENCY: 9.54982 cycles
cpu0_DTLB AVERAGE itMISS LATENCY: 0 cycles
cpu0_DTLB AVERAGE dtMISS LATENCY: 0 cycles
cpu0_DTLB PAGE CROSSINGS (TLB HIT):         0 
cpu0_DTLB PAGE CROSSINGS (TLB MISS):         0 
cpu0_DTLB AVERAGE MISS LATENCY: 9.54982 cycles
cpu0_STLB TOTAL       ACCESS:    1626517  HIT:    1467686  MISS:     158831  iACCESS:     388026  iHIT:     332349  iMISS:      55677  dACCESS:    1238491  dHIT:    1135337  dMISS:     103154  itACCESS:          0  itHIT:          0  itMISS:          0  dtACCESS:          0  dtHIT:          0  dtMISS:          0
cpu0_STLB LOAD         ACCESS:    1626517  HIT:    1467686  MISS:     158831  iACCESS:     388026  iHIT:     332349  iMISS:      55677  dACCESS:    1238491  dHIT:    1135337  dMISS:     103154  itACCESS:          0  itHIT:          0  itMISS:          0  dtACCESS:          0  dtHIT:          0  dtMISS:          0
cpu0_STLB RFO          ACCESS:          0  HIT:          0  MISS:          0  iACCESS:          0  iHIT:          0  iMISS:          0  dACCESS:          0  dHIT:          0  dMISS:          0  itACCESS:          0  itHIT:          0  itMISS:          0  dtACCESS:          0  dtHIT:          0  dtMISS:          0
cpu0_STLB PREFETCH     ACCESS:          0  HIT:          0  MISS:          0  iACCESS:          0  iHIT:          0  iMISS:          0  dACCESS:          0  dHIT:          0  dMISS:          0  itACCESS:          0  itHIT:          0  itMISS:          0  dtACCESS:          0  dtHIT:          0  dtMISS:          0
cpu0_STLB WRITE        ACCESS:          0  HIT:          0  MISS:          0  iACCESS:          0  iHIT:          0  iMISS:          0  dACCESS:          0  dHIT:          0  dMISS:          0  itACCESS:          0  itHIT:          0  itMISS:          0  dtACCESS:          0  dtHIT:          0  dtMISS:          0
cpu0_STLB TRANSLATION  ACCESS:          0  HIT:          0  MISS:          0  iACCESS:          0  iHIT:          0  iMISS:          0  dACCESS:          0  dHIT:          0  dMISS:          0  itACCESS:          0  itHIT:          0  itMISS:          0  dtACCESS:          0  dtHIT:          0  dtMISS:          0
cpu0_STLB PREFETCH  REQUESTED:          0  ISSUED:          0  CROSSED:          0  USEFUL:          0  USELESS:          0
cpu0_STLB AVERAGE iMISS LATENCY: 17.385 cycles
cpu0_STLB AVERAGE dMISS LATENCY: 63.2555 cycles
cpu0_STLB AVERAGE itMISS LATENCY: 0 cycles
cpu0_STLB AVERAGE dtMISS LATENCY: 0 cycles
cpu0_STLB PAGE CROSSINGS (TLB HIT):         0 
cpu0_STLB PAGE CROSSINGS (TLB MISS):         0 
cpu0_STLB AVERAGE MISS LATENCY: 80.6405 cycles
cpu0_L1D TOTAL       ACCESS:   41509920  HIT:   38010701  MISS:    3499219  iACCESS:          0  iHIT:          0  iMISS:          0  dACCESS:   41286734  dHIT:   37991944  dMISS:    3294790  itACCESS:      60376  itHIT:       8749  itMISS:      51627  dtACCESS:     162810  dtHIT:      10008  dtMISS:     152802
cpu0_L1D LOAD         ACCESS:   18953847  HIT:   17449356  MISS:    1504491  iACCESS:          0  iHIT:          0  iMISS:          0  dACCESS:   18953847  dHIT:   17449356  dMISS:    1504491  itACCESS:          0  itHIT:          0  itMISS:          0  dtACCESS:          0  dtHIT:          0  dtMISS:          0
cpu0_L1D RFO          ACCESS:          0  HIT:          0  MISS:          0  iACCESS:          0  iHIT:          0  iMISS:          0  dACCESS:          0  dHIT:          0  dMISS:          0  itACCESS:          0  itHIT:          0  itMISS:          0  dtACCESS:          0  dtHIT:          0  dtMISS:          0
cpu0_L1D PREFETCH     ACCESS:   12213750  HIT:   10848401  MISS:    1365349  iACCESS:          0  iHIT:          0  iMISS:          0  dACCESS:   12213750  dHIT:   10848401  dMISS:    1365349  itACCESS:          0  itHIT:          0  itMISS:          0  dtACCESS:          0  dtHIT:          0  dtMISS:          0
cpu0_L1D WRITE        ACCESS:   10119137  HIT:    9694187  MISS:     424950  iACCESS:          0  iHIT:          0  iMISS:          0  dACCESS:   10119137  dHIT:    9694187  dMISS:     424950  itACCESS:          0  itHIT:          0  itMISS:          0  dtACCESS:          0  dtHIT:          0  dtMISS:          0
cpu0_L1D TRANSLATION  ACCESS:     223186  HIT:      18757  MISS:     204429  iACCESS:          0  iHIT:          0  iMISS:          0  dACCESS:          0  dHIT:          0  dMISS:          0  itACCESS:      60376  itHIT:       8749  itMISS:      51627  dtACCESS:     162810  dtHIT:      10008  dtMISS:     152802
cpu0_L1D PREFETCH  REQUESTED:   18953847  ISSUED:   17067259  CROSSED:          0  USEFUL:     308850  USELESS:     703885
cpu0_L1D AVERAGE iMISS LATENCY: 0 cycles
cpu0_L1D AVERAGE dMISS LATENCY: 32.1129 cycles
cpu0_L1D AVERAGE itMISS LATENCY: 0.650085 cycles
cpu0_L1D AVERAGE dtMISS LATENCY: 2.21956 cycles
cpu0_L1D PAGE CROSSINGS (TLB HIT):         0 
cpu0_L1D PAGE CROSSINGS (TLB MISS):         0 
cpu0_L1D AVERAGE MISS LATENCY: 34.9826 cycles
cpu0_L2C TOTAL       ACCESS:    7000968  HIT:    1698891  MISS:    5302077  iACCESS:    3323505  iHIT:     865820  iMISS:    2457685  dACCESS:    3489421  dHIT:     720058  dMISS:    2769363  itACCESS:      51627  itHIT:      37912  itMISS:      13715  dtACCESS:     136415  dtHIT:      75101  dtMISS:      61314
cpu0_L2C LOAD         ACCESS:    1731485  HIT:     314911  MISS:    1416574  iACCESS:     795715  iHIT:     154549  iMISS:     641166  dACCESS:     935770  dHIT:     160362  dMISS:     775408  itACCESS:          0  itHIT:          0  itMISS:          0  dtACCESS:          0  dtHIT:          0  dtMISS:          0
cpu0_L2C RFO          ACCESS:     156428  HIT:      53370  MISS:     103058  iACCESS:          0  iHIT:          0  iMISS:          0  dACCESS:     156428  dHIT:      53370  dMISS:     103058  itACCESS:          0  itHIT:          0  itMISS:          0  dtACCESS:          0  dtHIT:          0  dtMISS:          0
cpu0_L2C PREFETCH     ACCESS:    4640866  HIT:    1075941  MISS:    3564925  iACCESS:    2527790  iHIT:     711271  iMISS:    1816519  dACCESS:    2113076  dHIT:     364670  dMISS:    1748406  itACCESS:          0  itHIT:          0  itMISS:          0  dtACCESS:          0  dtHIT:          0  dtMISS:          0
cpu0_L2C WRITE        ACCESS:     284147  HIT:     141656  MISS:     142491  iACCESS:          0  iHIT:          0  iMISS:          0  dACCESS:     284147  dHIT:     141656  dMISS:     142491  itACCESS:          0  itHIT:          0  itMISS:          0  dtACCESS:          0  dtHIT:          0  dtMISS:          0
cpu0_L2C TRANSLATION  ACCESS:     188042  HIT:     113013  MISS:      75029  iACCESS:          0  iHIT:          0  iMISS:          0  dACCESS:          0  dHIT:          0  dMISS:          0  itACCESS:      51627  itHIT:      37912  itMISS:      13715  dtACCESS:     136415  dtHIT:      75101  dtMISS:      61314
cpu0_L2C PREFETCH  REQUESTED:    1386925  ISSUED:    1386925  CROSSED:          0  USEFUL:     401417  USELESS:     378766
cpu0_L2C AVERAGE iMISS LATENCY: 14.6955 cycles
cpu0_L2C AVERAGE dMISS LATENCY: 23.9743 cycles
cpu0_L2C AVERAGE itMISS LATENCY: 0.338611 cycles
cpu0_L2C AVERAGE dtMISS LATENCY: 1.22018 cycles
cpu0_L2C PAGE CROSSINGS (TLB HIT):         0 
cpu0_L2C PAGE CROSSINGS (TLB MISS):         0 
cpu0_L2C AVERAGE MISS LATENCY: 40.2285 cycles
LLC TOTAL       ACCESS:    5184119  HIT:    4440785  MISS:     743334  iACCESS:    2401517  iHIT:    2185859  iMISS:     215658  dACCESS:    2707573  dHIT:    2218492  dMISS:     489081  itACCESS:      13715  itHIT:       4730  itMISS:       8985  dtACCESS:      61314  dtHIT:      31704  dtMISS:      29610
LLC LOAD         ACCESS:    1414724  HIT:    1246437  MISS:     168287  iACCESS:     639548  iHIT:     591923  iMISS:      47625  dACCESS:     775176  dHIT:     654514  dMISS:     120662  itACCESS:          0  itHIT:          0  itMISS:          0  dtACCESS:          0  dtHIT:          0  dtMISS:          0
LLC RFO          ACCESS:     103023  HIT:      69208  MISS:      33815  iACCESS:          0  iHIT:          0  iMISS:          0  dACCESS:     103023  dHIT:      69208  dMISS:      33815  itACCESS:          0  itHIT:          0  itMISS:          0  dtACCESS:          0  dtHIT:          0  dtMISS:          0
LLC PREFETCH     ACCESS:    3459702  HIT:    2965675  MISS:     494027  iACCESS:    1761969  iHIT:    1593936  iMISS:     168033  dACCESS:    1697733  dHIT:    1371739  dMISS:     325994  itACCESS:          0  itHIT:          0  itMISS:          0  dtACCESS:          0  dtHIT:          0  dtMISS:          0
LLC WRITE        ACCESS:     131641  HIT:     123031  MISS:       8610  iACCESS:          0  iHIT:          0  iMISS:          0  dACCESS:     131641  dHIT:     123031  dMISS:       8610  itACCESS:          0  itHIT:          0  itMISS:          0  dtACCESS:          0  dtHIT:          0  dtMISS:          0
LLC TRANSLATION  ACCESS:      75029  HIT:      36434  MISS:      38595  iACCESS:          0  iHIT:          0  iMISS:          0  dACCESS:          0  dHIT:          0  dMISS:          0  itACCESS:      13715  itHIT:       4730  itMISS:       8985  dtACCESS:      61314  dtHIT:      31704  dtMISS:      29610
LLC PREFETCH  REQUESTED:          0  ISSUED:          0  CROSSED:          0  USEFUL:          0  USELESS:          0
LLC AVERAGE iMISS LATENCY: 42.497 cycles
LLC AVERAGE dMISS LATENCY: 104 cycles
LLC AVERAGE itMISS LATENCY: 2.0533 cycles
LLC AVERAGE dtMISS LATENCY: 7.09746 cycles
LLC PAGE CROSSINGS (TLB HIT):         0 
LLC PAGE CROSSINGS (TLB MISS):         0 
LLC AVERAGE MISS LATENCY: 155.648 cycles

PageTableWalker TOTAL       ACCESS:      82159  
PageTableWalker AVERAGE LATENCY: 4.43984 cycles
PageTableWalker TOTAL LATENCY: 364772 cycles

DRAM Statistics
Channel 0
 RQ ROW_BUFFER_HIT:     202762
  ROW_BUFFER_MISS:     531951
 AVG DBUS CONGESTED CYCLE:    3.60844
 WQ ROW_BUFFER_HIT:      14675
  ROW_BUFFER_MISS:      20598  FULL:          0

