last_page:0x200000000000000
VMEM_RES_CAP:0x100000
PAGE_SIZE:4096
LOG2_PAGE_SIZE:12
LOG2_PAGE_TABLE_SIZE:9
page_table_levels:5
WARNING: physical memory size is smaller than virtual memory size
FDiP enabled with aggresivity 16

*** ChampSim Multicore Out-of-Order Simulator ***

Warmup Instructions: 50000000
Simulation Instructions: 100000000
Number of CPUs: 1
Small page size: 4096
Large page size: 2097152

CPU 0 Bimodal branch predictor
Basic BTB sets: 1024 ways: 8 indirect buffer size: 4096 RAS size: 64
Instruction page size distrubution: 0
Loading instruction page size distribution from /home/bsc/bsc018186/scratch/itp_asplos25_AE/dump/srv697_ap.pdst
Data page size distrubution: 0
Loading data page size distribution from /home/bsc/bsc018186/scratch/itp_asplos25_AE/dump/srv697_ap.pdst
cpu0_L2C IP-based stride prefetcher
cpu0_L2C is using PTP replacement policy:
	TLB_STRESS_THRESHOLD:0
	PTE_EVICTION_RATIO:0
cpu0_L1D next line prefetcher
cpu0_L1I next line prefetcher
Off-chip DRAM Size: 4 GiB Channels: 1 Width: 64-bit Data Rate: 3200 MT/s
Heartbeat CPU 0 instructions: 10000003 cycles: 2500200 heartbeat IPC: 3.99969 cumulative IPC: 3.99969 (Simulation time: 0 hr 0 min 37 sec) 
Heartbeat CPU 0 instructions: 20000000 cycles: 5000242 heartbeat IPC: 3.99994 cumulative IPC: 3.99981 (Simulation time: 0 hr 1 min 16 sec) 
Heartbeat CPU 0 instructions: 30000000 cycles: 7500314 heartbeat IPC: 3.99989 cumulative IPC: 3.99984 (Simulation time: 0 hr 1 min 56 sec) 
Heartbeat CPU 0 instructions: 40000003 cycles: 10000315 heartbeat IPC: 4 cumulative IPC: 3.99988 (Simulation time: 0 hr 2 min 36 sec) 
Heartbeat CPU 0 instructions: 50000000 cycles: 12500372 heartbeat IPC: 3.99991 cumulative IPC: 3.99989 (Simulation time: 0 hr 3 min 17 sec) 
Warmup finished CPU 0 instructions: 50000000 cycles: 12500373 cumulative IPC: 3.99989 (Simulation time: 0 hr 3 min 17 sec) 

Warmup complete CPU 0 instructions: 50000000 cycles: 12500373 (Simulation time: 0 hr 3 min 17 sec) 

Heartbeat CPU 0 instructions: 60000004 cycles: 26749146 heartbeat IPC: 0.701816 cumulative IPC: 0.701816 (Simulation time: 0 hr 4 min 21 sec) 
Heartbeat CPU 0 instructions: 70000000 cycles: 40354939 heartbeat IPC: 0.734981 cumulative IPC: 0.718016 (Simulation time: 0 hr 5 min 26 sec) 
Heartbeat CPU 0 instructions: 80000000 cycles: 54888244 heartbeat IPC: 0.688075 cumulative IPC: 0.70775 (Simulation time: 0 hr 6 min 32 sec) 
Heartbeat CPU 0 instructions: 90000002 cycles: 68625472 heartbeat IPC: 0.72795 cumulative IPC: 0.712694 (Simulation time: 0 hr 7 min 37 sec) 
Heartbeat CPU 0 instructions: 100000000 cycles: 82724193 heartbeat IPC: 0.709285 cumulative IPC: 0.71201 (Simulation time: 0 hr 8 min 42 sec) 
*** Reached end of trace: /gpfs/projects/bsc18/MN4/bsc18/romol/ChampSim/traces/qualcomm_srv/srv697_ap.champsimtrace.xz
Heartbeat CPU 0 instructions: 110000002 cycles: 96271674 heartbeat IPC: 0.738145 cumulative IPC: 0.716236 (Simulation time: 0 hr 9 min 47 sec) 
Heartbeat CPU 0 instructions: 120000000 cycles: 110098623 heartbeat IPC: 0.723226 cumulative IPC: 0.717226 (Simulation time: 0 hr 10 min 51 sec) 
Heartbeat CPU 0 instructions: 130000000 cycles: 124503668 heartbeat IPC: 0.694202 cumulative IPC: 0.714265 (Simulation time: 0 hr 11 min 57 sec) 
Heartbeat CPU 0 instructions: 140000003 cycles: 138042025 heartbeat IPC: 0.738643 cumulative IPC: 0.716894 (Simulation time: 0 hr 13 min 1 sec) 
Heartbeat CPU 0 instructions: 150000000 cycles: 152340535 heartbeat IPC: 0.699374 cumulative IPC: 0.715103 (Simulation time: 0 hr 14 min 7 sec) 
Simulation finished CPU 0 instructions: 100000000 cycles: 139840163 cumulative IPC: 0.715103 (Simulation time: 0 hr 14 min 7 sec) 

Simulation complete CPU 0 instructions: 100000000 cycles: 139840163 (Simulation time: 0 hr 14 min 7 sec) 


ChampSim completed all CPUs

Saving instructions large page distribution to /home/bsc/bsc018186/scratch/itp_asplos25_AE/dump/srv697_ap.pdst...
Saving data large page distribution to /home/bsc/bsc018186/scratch/itp_asplos25_AE/dump/srv697_ap.pdst...
=== Simulation ===
CPU 0 runs /gpfs/projects/bsc18/MN4/bsc18/romol/ChampSim/traces/qualcomm_srv/srv697_ap.champsimtrace.xz

Region of Interest Statistics

CPU 0 cumulative IPC: 0.715103 instructions: 100000000 cycles: 139840163
CPU 0 Branch Prediction Accuracy: 83.463% MPKI: 29.708 Average ROB Occupancy at Mispredict: 12.3532
Branch type MPKI
BRANCH_DIRECT_JUMP: 0.950821
BRANCH_INDIRECT: 15.4078
BRANCH_CONDITIONAL: 9.71742
BRANCH_DIRECT_CALL: 1.81125
BRANCH_INDIRECT_CALL: 0.500321
BRANCH_RETURN: 1.32041

Instructions large pages: 0
Instructions small pages: 9679
Large page distribution for instructions: 0%

Data large pages: 0
Data small pages: 8829
Large page distribution for data: 0%

cpu0_L1I TOTAL       ACCESS:   35147590  HIT:   26533021  MISS:    8614569  iACCESS:   35147590  iHIT:   26533021  iMISS:    8614569  dACCESS:          0  dHIT:          0  dMISS:          0  itACCESS:          0  itHIT:          0  itMISS:          0  dtACCESS:          0  dtHIT:          0  dtMISS:          0
cpu0_L1I LOAD         ACCESS:   10232985  HIT:    7826016  MISS:    2406969  iACCESS:   10232985  iHIT:    7826016  iMISS:    2406969  dACCESS:          0  dHIT:          0  dMISS:          0  itACCESS:          0  itHIT:          0  itMISS:          0  dtACCESS:          0  dtHIT:          0  dtMISS:          0
cpu0_L1I RFO          ACCESS:          0  HIT:          0  MISS:          0  iACCESS:          0  iHIT:          0  iMISS:          0  dACCESS:          0  dHIT:          0  dMISS:          0  itACCESS:          0  itHIT:          0  itMISS:          0  dtACCESS:          0  dtHIT:          0  dtMISS:          0
cpu0_L1I PREFETCH     ACCESS:   24914605  HIT:   18707005  MISS:    6207600  iACCESS:   24914605  iHIT:   18707005  iMISS:    6207600  dACCESS:          0  dHIT:          0  dMISS:          0  itACCESS:          0  itHIT:          0  itMISS:          0  dtACCESS:          0  dtHIT:          0  dtMISS:          0
cpu0_L1I WRITE        ACCESS:          0  HIT:          0  MISS:          0  iACCESS:          0  iHIT:          0  iMISS:          0  dACCESS:          0  dHIT:          0  dMISS:          0  itACCESS:          0  itHIT:          0  itMISS:          0  dtACCESS:          0  dtHIT:          0  dtMISS:          0
cpu0_L1I TRANSLATION  ACCESS:          0  HIT:          0  MISS:          0  iACCESS:          0  iHIT:          0  iMISS:          0  dACCESS:          0  dHIT:          0  dMISS:          0  itACCESS:          0  itHIT:          0  itMISS:          0  dtACCESS:          0  dtHIT:          0  dtMISS:          0
cpu0_L1I PREFETCH  REQUESTED:   27131720  ISSUED:   27128229  CROSSED:          0  USEFUL:    1934541  USELESS:     638712
cpu0_L1I AVERAGE iMISS LATENCY: 13.5912 cycles
cpu0_L1I AVERAGE dMISS LATENCY: 0 cycles
cpu0_L1I AVERAGE itMISS LATENCY: 0 cycles
cpu0_L1I AVERAGE dtMISS LATENCY: 0 cycles
cpu0_L1I PAGE CROSSINGS (TLB HIT):         0 
cpu0_L1I PAGE CROSSINGS (TLB MISS):         0 
cpu0_L1I AVERAGE MISS LATENCY: 13.5912 cycles
cpu0_ITLB TOTAL       ACCESS:   29034828  HIT:   27040367  MISS:    1994461  iACCESS:   29034828  iHIT:   27040367  iMISS:    1994461  dACCESS:          0  dHIT:          0  dMISS:          0  itACCESS:          0  itHIT:          0  itMISS:          0  dtACCESS:          0  dtHIT:          0  dtMISS:          0
cpu0_ITLB LOAD         ACCESS:   29034828  HIT:   27040367  MISS:    1994461  iACCESS:   29034828  iHIT:   27040367  iMISS:    1994461  dACCESS:          0  dHIT:          0  dMISS:          0  itACCESS:          0  itHIT:          0  itMISS:          0  dtACCESS:          0  dtHIT:          0  dtMISS:          0
cpu0_ITLB RFO          ACCESS:          0  HIT:          0  MISS:          0  iACCESS:          0  iHIT:          0  iMISS:          0  dACCESS:          0  dHIT:          0  dMISS:          0  itACCESS:          0  itHIT:          0  itMISS:          0  dtACCESS:          0  dtHIT:          0  dtMISS:          0
cpu0_ITLB PREFETCH     ACCESS:          0  HIT:          0  MISS:          0  iACCESS:          0  iHIT:          0  iMISS:          0  dACCESS:          0  dHIT:          0  dMISS:          0  itACCESS:          0  itHIT:          0  itMISS:          0  dtACCESS:          0  dtHIT:          0  dtMISS:          0
cpu0_ITLB WRITE        ACCESS:          0  HIT:          0  MISS:          0  iACCESS:          0  iHIT:          0  iMISS:          0  dACCESS:          0  dHIT:          0  dMISS:          0  itACCESS:          0  itHIT:          0  itMISS:          0  dtACCESS:          0  dtHIT:          0  dtMISS:          0
cpu0_ITLB TRANSLATION  ACCESS:          0  HIT:          0  MISS:          0  iACCESS:          0  iHIT:          0  iMISS:          0  dACCESS:          0  dHIT:          0  dMISS:          0  itACCESS:          0  itHIT:          0  itMISS:          0  dtACCESS:          0  dtHIT:          0  dtMISS:          0
cpu0_ITLB PREFETCH  REQUESTED:          0  ISSUED:          0  CROSSED:          0  USEFUL:     326450  USELESS:      62471
cpu0_ITLB AVERAGE iMISS LATENCY: 2.72379 cycles
cpu0_ITLB AVERAGE dMISS LATENCY: 0 cycles
cpu0_ITLB AVERAGE itMISS LATENCY: 0 cycles
cpu0_ITLB AVERAGE dtMISS LATENCY: 0 cycles
cpu0_ITLB PAGE CROSSINGS (TLB HIT):         0 
cpu0_ITLB PAGE CROSSINGS (TLB MISS):         0 
cpu0_ITLB AVERAGE MISS LATENCY: 2.72379 cycles
cpu0_DTLB TOTAL       ACCESS:   27731533  HIT:   25704994  MISS:    2026539  iACCESS:          0  iHIT:          0  iMISS:          0  dACCESS:   27731533  dHIT:   25704994  dMISS:    2026539  itACCESS:          0  itHIT:          0  itMISS:          0  dtACCESS:          0  dtHIT:          0  dtMISS:          0
cpu0_DTLB LOAD         ACCESS:   27731533  HIT:   25704994  MISS:    2026539  iACCESS:          0  iHIT:          0  iMISS:          0  dACCESS:   27731533  dHIT:   25704994  dMISS:    2026539  itACCESS:          0  itHIT:          0  itMISS:          0  dtACCESS:          0  dtHIT:          0  dtMISS:          0
cpu0_DTLB RFO          ACCESS:          0  HIT:          0  MISS:          0  iACCESS:          0  iHIT:          0  iMISS:          0  dACCESS:          0  dHIT:          0  dMISS:          0  itACCESS:          0  itHIT:          0  itMISS:          0  dtACCESS:          0  dtHIT:          0  dtMISS:          0
cpu0_DTLB PREFETCH     ACCESS:          0  HIT:          0  MISS:          0  iACCESS:          0  iHIT:          0  iMISS:          0  dACCESS:          0  dHIT:          0  dMISS:          0  itACCESS:          0  itHIT:          0  itMISS:          0  dtACCESS:          0  dtHIT:          0  dtMISS:          0
cpu0_DTLB WRITE        ACCESS:          0  HIT:          0  MISS:          0  iACCESS:          0  iHIT:          0  iMISS:          0  dACCESS:          0  dHIT:          0  dMISS:          0  itACCESS:          0  itHIT:          0  itMISS:          0  dtACCESS:          0  dtHIT:          0  dtMISS:          0
cpu0_DTLB TRANSLATION  ACCESS:          0  HIT:          0  MISS:          0  iACCESS:          0  iHIT:          0  iMISS:          0  dACCESS:          0  dHIT:          0  dMISS:          0  itACCESS:          0  itHIT:          0  itMISS:          0  dtACCESS:          0  dtHIT:          0  dtMISS:          0
cpu0_DTLB PREFETCH  REQUESTED:          0  ISSUED:          0  CROSSED:          0  USEFUL:          0  USELESS:          0
cpu0_DTLB AVERAGE iMISS LATENCY: 0 cycles
cpu0_DTLB AVERAGE dMISS LATENCY: 8.75885 cycles
cpu0_DTLB AVERAGE itMISS LATENCY: 0 cycles
cpu0_DTLB AVERAGE dtMISS LATENCY: 0 cycles
cpu0_DTLB PAGE CROSSINGS (TLB HIT):         0 
cpu0_DTLB PAGE CROSSINGS (TLB MISS):         0 
cpu0_DTLB AVERAGE MISS LATENCY: 8.75885 cycles
cpu0_STLB TOTAL       ACCESS:    1631309  HIT:    1469935  MISS:     161374  iACCESS:     388958  iHIT:     332344  iMISS:      56614  dACCESS:    1242351  dHIT:    1137591  dMISS:     104760  itACCESS:          0  itHIT:          0  itMISS:          0  dtACCESS:          0  dtHIT:          0  dtMISS:          0
cpu0_STLB LOAD         ACCESS:    1631309  HIT:    1469935  MISS:     161374  iACCESS:     388958  iHIT:     332344  iMISS:      56614  dACCESS:    1242351  dHIT:    1137591  dMISS:     104760  itACCESS:          0  itHIT:          0  itMISS:          0  dtACCESS:          0  dtHIT:          0  dtMISS:          0
cpu0_STLB RFO          ACCESS:          0  HIT:          0  MISS:          0  iACCESS:          0  iHIT:          0  iMISS:          0  dACCESS:          0  dHIT:          0  dMISS:          0  itACCESS:          0  itHIT:          0  itMISS:          0  dtACCESS:          0  dtHIT:          0  dtMISS:          0
cpu0_STLB PREFETCH     ACCESS:          0  HIT:          0  MISS:          0  iACCESS:          0  iHIT:          0  iMISS:          0  dACCESS:          0  dHIT:          0  dMISS:          0  itACCESS:          0  itHIT:          0  itMISS:          0  dtACCESS:          0  dtHIT:          0  dtMISS:          0
cpu0_STLB WRITE        ACCESS:          0  HIT:          0  MISS:          0  iACCESS:          0  iHIT:          0  iMISS:          0  dACCESS:          0  dHIT:          0  dMISS:          0  itACCESS:          0  itHIT:          0  itMISS:          0  dtACCESS:          0  dtHIT:          0  dtMISS:          0
cpu0_STLB TRANSLATION  ACCESS:          0  HIT:          0  MISS:          0  iACCESS:          0  iHIT:          0  iMISS:          0  dACCESS:          0  dHIT:          0  dMISS:          0  itACCESS:          0  itHIT:          0  itMISS:          0  dtACCESS:          0  dtHIT:          0  dtMISS:          0
cpu0_STLB PREFETCH  REQUESTED:          0  ISSUED:          0  CROSSED:          0  USEFUL:          0  USELESS:          0
cpu0_STLB AVERAGE iMISS LATENCY: 14.6529 cycles
cpu0_STLB AVERAGE dMISS LATENCY: 48.708 cycles
cpu0_STLB AVERAGE itMISS LATENCY: 0 cycles
cpu0_STLB AVERAGE dtMISS LATENCY: 0 cycles
cpu0_STLB PAGE CROSSINGS (TLB HIT):         0 
cpu0_STLB PAGE CROSSINGS (TLB MISS):         0 
cpu0_STLB AVERAGE MISS LATENCY: 63.3608 cycles
cpu0_L1D TOTAL       ACCESS:   41522774  HIT:   37953398  MISS:    3569376  iACCESS:          0  iHIT:          0  iMISS:          0  dACCESS:   41300099  dHIT:   37933876  dMISS:    3366223  itACCESS:      61540  itHIT:       9154  itMISS:      52386  dtACCESS:     161135  dtHIT:      10368  dtMISS:     150767
cpu0_L1D LOAD         ACCESS:   18946296  HIT:   17418148  MISS:    1528148  iACCESS:          0  iHIT:          0  iMISS:          0  dACCESS:   18946296  dHIT:   17418148  dMISS:    1528148  itACCESS:          0  itHIT:          0  itMISS:          0  dtACCESS:          0  dtHIT:          0  dtMISS:          0
cpu0_L1D RFO          ACCESS:          0  HIT:          0  MISS:          0  iACCESS:          0  iHIT:          0  iMISS:          0  dACCESS:          0  dHIT:          0  dMISS:          0  itACCESS:          0  itHIT:          0  itMISS:          0  dtACCESS:          0  dtHIT:          0  dtMISS:          0
cpu0_L1D PREFETCH     ACCESS:   12192633  HIT:   10801045  MISS:    1391588  iACCESS:          0  iHIT:          0  iMISS:          0  dACCESS:   12192633  dHIT:   10801045  dMISS:    1391588  itACCESS:          0  itHIT:          0  itMISS:          0  dtACCESS:          0  dtHIT:          0  dtMISS:          0
cpu0_L1D WRITE        ACCESS:   10161170  HIT:    9714683  MISS:     446487  iACCESS:          0  iHIT:          0  iMISS:          0  dACCESS:   10161170  dHIT:    9714683  dMISS:     446487  itACCESS:          0  itHIT:          0  itMISS:          0  dtACCESS:          0  dtHIT:          0  dtMISS:          0
cpu0_L1D TRANSLATION  ACCESS:     222675  HIT:      19522  MISS:     203153  iACCESS:          0  iHIT:          0  iMISS:          0  dACCESS:          0  dHIT:          0  dMISS:          0  itACCESS:      61540  itHIT:       9154  itMISS:      52386  dtACCESS:     161135  dtHIT:      10368  dtMISS:     150767
cpu0_L1D PREFETCH  REQUESTED:   18946296  ISSUED:   16972530  CROSSED:          0  USEFUL:     309183  USELESS:     700370
cpu0_L1D AVERAGE iMISS LATENCY: 0 cycles
cpu0_L1D AVERAGE dMISS LATENCY: 34.5236 cycles
cpu0_L1D AVERAGE itMISS LATENCY: 0.526556 cycles
cpu0_L1D AVERAGE dtMISS LATENCY: 1.5878 cycles
cpu0_L1D PAGE CROSSINGS (TLB HIT):         0 
cpu0_L1D PAGE CROSSINGS (TLB MISS):         0 
cpu0_L1D AVERAGE MISS LATENCY: 36.638 cycles
cpu0_L2C TOTAL       ACCESS:    7007876  HIT:    1237201  MISS:    5770675  iACCESS:    3330431  iHIT:     706943  iMISS:    2623488  dACCESS:    3486759  dHIT:     379352  dMISS:    3107407  itACCESS:      52360  itHIT:      40745  itMISS:      11615  dtACCESS:     138326  dtHIT:     110161  dtMISS:      28165
cpu0_L2C LOAD         ACCESS:    1728265  HIT:     141342  MISS:    1586923  iACCESS:     796578  iHIT:     106455  iMISS:     690123  dACCESS:     931687  dHIT:      34887  dMISS:     896800  itACCESS:          0  itHIT:          0  itMISS:          0  dtACCESS:          0  dtHIT:          0  dtMISS:          0
cpu0_L2C RFO          ACCESS:     156175  HIT:       8167  MISS:     148008  iACCESS:          0  iHIT:          0  iMISS:          0  dACCESS:     156175  dHIT:       8167  dMISS:     148008  itACCESS:          0  itHIT:          0  itMISS:          0  dtACCESS:          0  dtHIT:          0  dtMISS:          0
cpu0_L2C PREFETCH     ACCESS:    4649035  HIT:     875974  MISS:    3773061  iACCESS:    2533853  iHIT:     600488  iMISS:    1933365  dACCESS:    2115182  dHIT:     275486  dMISS:    1839696  itACCESS:          0  itHIT:          0  itMISS:          0  dtACCESS:          0  dtHIT:          0  dtMISS:          0
cpu0_L2C WRITE        ACCESS:     283715  HIT:      60812  MISS:     222903  iACCESS:          0  iHIT:          0  iMISS:          0  dACCESS:     283715  dHIT:      60812  dMISS:     222903  itACCESS:          0  itHIT:          0  itMISS:          0  dtACCESS:          0  dtHIT:          0  dtMISS:          0
cpu0_L2C TRANSLATION  ACCESS:     190686  HIT:     150906  MISS:      39780  iACCESS:          0  iHIT:          0  iMISS:          0  dACCESS:          0  dHIT:          0  dMISS:          0  itACCESS:      52360  itHIT:      40745  itMISS:      11615  dtACCESS:     138326  dtHIT:     110161  dtMISS:      28165
cpu0_L2C PREFETCH  REQUESTED:    1389308  ISSUED:    1389308  CROSSED:          0  USEFUL:     417122  USELESS:     391581
cpu0_L2C AVERAGE iMISS LATENCY: 14.8491 cycles
cpu0_L2C AVERAGE dMISS LATENCY: 24.8514 cycles
cpu0_L2C AVERAGE itMISS LATENCY: 0.241807 cycles
cpu0_L2C AVERAGE dtMISS LATENCY: 0.760215 cycles
cpu0_L2C PAGE CROSSINGS (TLB HIT):         0 
cpu0_L2C PAGE CROSSINGS (TLB MISS):         0 
cpu0_L2C AVERAGE MISS LATENCY: 40.7025 cycles
LLC TOTAL       ACCESS:    5694922  HIT:    4877757  MISS:     817165  iACCESS:    2565482  iHIT:    2318849  iMISS:     246633  dACCESS:    3089660  dHIT:    2547133  dMISS:     542527  itACCESS:      11615  itHIT:       4920  itMISS:       6695  dtACCESS:      28165  dtHIT:       6855  dtMISS:      21310
LLC LOAD         ACCESS:    1584986  HIT:    1394558  MISS:     190428  iACCESS:     688447  iHIT:     635538  iMISS:      52909  dACCESS:     896539  dHIT:     759020  dMISS:     137519  itACCESS:          0  itHIT:          0  itMISS:          0  dtACCESS:          0  dtHIT:          0  dtMISS:          0
LLC RFO          ACCESS:     147979  HIT:     109307  MISS:      38672  iACCESS:          0  iHIT:          0  iMISS:          0  dACCESS:     147979  dHIT:     109307  dMISS:      38672  itACCESS:          0  itHIT:          0  itMISS:          0  dtACCESS:          0  dtHIT:          0  dtMISS:          0
LLC PREFETCH     ACCESS:    3663592  HIT:    3103532  MISS:     560060  iACCESS:    1877035  iHIT:    1683311  iMISS:     193724  dACCESS:    1786557  dHIT:    1420221  dMISS:     366336  itACCESS:          0  itHIT:          0  itMISS:          0  dtACCESS:          0  dtHIT:          0  dtMISS:          0
LLC WRITE        ACCESS:     258585  HIT:     258585  MISS:          0  iACCESS:          0  iHIT:          0  iMISS:          0  dACCESS:     258585  dHIT:     258585  dMISS:          0  itACCESS:          0  itHIT:          0  itMISS:          0  dtACCESS:          0  dtHIT:          0  dtMISS:          0
LLC TRANSLATION  ACCESS:      39780  HIT:      11775  MISS:      28005  iACCESS:          0  iHIT:          0  iMISS:          0  dACCESS:          0  dHIT:          0  dMISS:          0  itACCESS:      11615  itHIT:       4920  itMISS:       6695  dtACCESS:      28165  dtHIT:       6855  dtMISS:      21310
LLC PREFETCH  REQUESTED:          0  ISSUED:          0  CROSSED:          0  USEFUL:          0  USELESS:          0
LLC AVERAGE iMISS LATENCY: 44.2833 cycles
LLC AVERAGE dMISS LATENCY: 108.512 cycles
LLC AVERAGE itMISS LATENCY: 1.42987 cycles
LLC AVERAGE dtMISS LATENCY: 4.68996 cycles
LLC PAGE CROSSINGS (TLB HIT):         0 
LLC PAGE CROSSINGS (TLB MISS):         0 
LLC AVERAGE MISS LATENCY: 158.915 cycles

PageTableWalker TOTAL       ACCESS:      81662  
PageTableWalker AVERAGE LATENCY: 4.13463 cycles
PageTableWalker TOTAL LATENCY: 337642 cycles

DRAM Statistics
Channel 0
 RQ ROW_BUFFER_HIT:     231253
  ROW_BUFFER_MISS:     585865
 AVG DBUS CONGESTED CYCLE:    3.63191
 WQ ROW_BUFFER_HIT:      20662
  ROW_BUFFER_MISS:      29467  FULL:          0

