last_page:0x200000000000000
VMEM_RES_CAP:0x100000
PAGE_SIZE:4096
LOG2_PAGE_SIZE:12
LOG2_PAGE_TABLE_SIZE:9
page_table_levels:5
WARNING: physical memory size is smaller than virtual memory size
FDiP enabled with aggresivity 16

*** ChampSim Multicore Out-of-Order Simulator ***

Warmup Instructions: 50000000
Simulation Instructions: 100000000
Number of CPUs: 1
Small page size: 4096
Large page size: 2097152

CPU 0 Bimodal branch predictor
Basic BTB sets: 1024 ways: 8 indirect buffer size: 4096 RAS size: 64
Instruction page size distrubution: 0
Loading instruction page size distribution from /home/bsc/bsc018186/scratch/itp_asplos25_AE/dump/srv662_ap.pdst
Data page size distrubution: 0
Loading data page size distribution from /home/bsc/bsc018186/scratch/itp_asplos25_AE/dump/srv662_ap.pdst
cpu0_L2C IP-based stride prefetcher
cpu0_L1D next line prefetcher
cpu0_STLB using iTP with max lru@8
cpu0_STLB using iTP with instr@0 and data@2
Init sat counter with 3 bits (max:50).
cpu0_L1I next line prefetcher
Off-chip DRAM Size: 4 GiB Channels: 1 Width: 64-bit Data Rate: 3200 MT/s
Heartbeat CPU 0 instructions: 10000001 cycles: 2500133 heartbeat IPC: 3.99979 cumulative IPC: 3.99979 (Simulation time: 0 hr 0 min 37 sec) 
Heartbeat CPU 0 instructions: 20000002 cycles: 5000149 heartbeat IPC: 3.99998 cumulative IPC: 3.99989 (Simulation time: 0 hr 1 min 17 sec) 
Heartbeat CPU 0 instructions: 30000002 cycles: 7500263 heartbeat IPC: 3.99982 cumulative IPC: 3.99987 (Simulation time: 0 hr 1 min 57 sec) 
Heartbeat CPU 0 instructions: 40000002 cycles: 10000324 heartbeat IPC: 3.99991 cumulative IPC: 3.99988 (Simulation time: 0 hr 2 min 38 sec) 
Heartbeat CPU 0 instructions: 50000003 cycles: 12500349 heartbeat IPC: 3.99997 cumulative IPC: 3.99989 (Simulation time: 0 hr 3 min 19 sec) 
Warmup finished CPU 0 instructions: 50000003 cycles: 12500350 cumulative IPC: 3.99989 (Simulation time: 0 hr 3 min 19 sec) 

Warmup complete CPU 0 instructions: 50000003 cycles: 12500350 (Simulation time: 0 hr 3 min 19 sec) 

Heartbeat CPU 0 instructions: 60000002 cycles: 26891718 heartbeat IPC: 0.694861 cumulative IPC: 0.694861 (Simulation time: 0 hr 4 min 23 sec) 
Heartbeat CPU 0 instructions: 70000001 cycles: 40568378 heartbeat IPC: 0.731173 cumulative IPC: 0.712555 (Simulation time: 0 hr 5 min 27 sec) 
Heartbeat CPU 0 instructions: 80000000 cycles: 55472931 heartbeat IPC: 0.670936 cumulative IPC: 0.69812 (Simulation time: 0 hr 6 min 32 sec) 
Heartbeat CPU 0 instructions: 90000003 cycles: 70252173 heartbeat IPC: 0.676625 cumulative IPC: 0.692619 (Simulation time: 0 hr 7 min 37 sec) 
Heartbeat CPU 0 instructions: 100000000 cycles: 84421767 heartbeat IPC: 0.705737 cumulative IPC: 0.695204 (Simulation time: 0 hr 8 min 41 sec) 
*** Reached end of trace: /gpfs/projects/bsc18/MN4/bsc18/romol/ChampSim/traces/qualcomm_srv/srv662_ap.champsimtrace.xz
Heartbeat CPU 0 instructions: 110000003 cycles: 98146187 heartbeat IPC: 0.728629 cumulative IPC: 0.70056 (Simulation time: 0 hr 9 min 46 sec) 
Heartbeat CPU 0 instructions: 120000000 cycles: 112095082 heartbeat IPC: 0.716903 cumulative IPC: 0.702849 (Simulation time: 0 hr 10 min 51 sec) 
Heartbeat CPU 0 instructions: 130000004 cycles: 126261369 heartbeat IPC: 0.705902 cumulative IPC: 0.703229 (Simulation time: 0 hr 11 min 56 sec) 
Heartbeat CPU 0 instructions: 140000001 cycles: 140485385 heartbeat IPC: 0.703037 cumulative IPC: 0.703208 (Simulation time: 0 hr 13 min 1 sec) 
Heartbeat CPU 0 instructions: 150000000 cycles: 155288228 heartbeat IPC: 0.675546 cumulative IPC: 0.70034 (Simulation time: 0 hr 14 min 8 sec) 
Simulation finished CPU 0 instructions: 100000000 cycles: 142787880 cumulative IPC: 0.70034 (Simulation time: 0 hr 14 min 8 sec) 

Simulation complete CPU 0 instructions: 100000000 cycles: 142787880 (Simulation time: 0 hr 14 min 8 sec) 


ChampSim completed all CPUs

Saving instructions large page distribution to /home/bsc/bsc018186/scratch/itp_asplos25_AE/dump/srv662_ap.pdst...
Saving data large page distribution to /home/bsc/bsc018186/scratch/itp_asplos25_AE/dump/srv662_ap.pdst...
=== Simulation ===
CPU 0 runs /gpfs/projects/bsc18/MN4/bsc18/romol/ChampSim/traces/qualcomm_srv/srv662_ap.champsimtrace.xz

Region of Interest Statistics

CPU 0 cumulative IPC: 0.70034 instructions: 100000000 cycles: 142787880
CPU 0 Branch Prediction Accuracy: 82.6449% MPKI: 31.087 Average ROB Occupancy at Mispredict: 12.6456
Branch type MPKI
BRANCH_DIRECT_JUMP: 1.05383
BRANCH_INDIRECT: 16.0046
BRANCH_CONDITIONAL: 10.2307
BRANCH_DIRECT_CALL: 1.90916
BRANCH_INDIRECT_CALL: 0.521161
BRANCH_RETURN: 1.36762

Instructions large pages: 0
Instructions small pages: 975
Large page distribution for instructions: 0%

Data large pages: 0
Data small pages: 9556
Large page distribution for data: 0%

cpu0_L1I TOTAL       ACCESS:   35618416  HIT:   27216549  MISS:    8401867  iACCESS:   35618416  iHIT:   27216549  iMISS:    8401867  dACCESS:          0  dHIT:          0  dMISS:          0  itACCESS:          0  itHIT:          0  itMISS:          0  dtACCESS:          0  dtHIT:          0  dtMISS:          0
cpu0_L1I LOAD         ACCESS:   10430922  HIT:    8087778  MISS:    2343144  iACCESS:   10430922  iHIT:    8087778  iMISS:    2343144  dACCESS:          0  dHIT:          0  dMISS:          0  itACCESS:          0  itHIT:          0  itMISS:          0  dtACCESS:          0  dtHIT:          0  dtMISS:          0
cpu0_L1I RFO          ACCESS:          0  HIT:          0  MISS:          0  iACCESS:          0  iHIT:          0  iMISS:          0  dACCESS:          0  dHIT:          0  dMISS:          0  itACCESS:          0  itHIT:          0  itMISS:          0  dtACCESS:          0  dtHIT:          0  dtMISS:          0
cpu0_L1I PREFETCH     ACCESS:   25187494  HIT:   19128771  MISS:    6058723  iACCESS:   25187494  iHIT:   19128771  iMISS:    6058723  dACCESS:          0  dHIT:          0  dMISS:          0  itACCESS:          0  itHIT:          0  itMISS:          0  dtACCESS:          0  dtHIT:          0  dtMISS:          0
cpu0_L1I WRITE        ACCESS:          0  HIT:          0  MISS:          0  iACCESS:          0  iHIT:          0  iMISS:          0  dACCESS:          0  dHIT:          0  dMISS:          0  itACCESS:          0  itHIT:          0  itMISS:          0  dtACCESS:          0  dtHIT:          0  dtMISS:          0
cpu0_L1I TRANSLATION  ACCESS:          0  HIT:          0  MISS:          0  iACCESS:          0  iHIT:          0  iMISS:          0  dACCESS:          0  dHIT:          0  dMISS:          0  itACCESS:          0  itHIT:          0  itMISS:          0  dtACCESS:          0  dtHIT:          0  dtMISS:          0
cpu0_L1I PREFETCH  REQUESTED:   27496442  ISSUED:   27494094  CROSSED:          0  USEFUL:    1951240  USELESS:     630161
cpu0_L1I AVERAGE iMISS LATENCY: 13.2859 cycles
cpu0_L1I AVERAGE dMISS LATENCY: 0 cycles
cpu0_L1I AVERAGE itMISS LATENCY: 0 cycles
cpu0_L1I AVERAGE dtMISS LATENCY: 0 cycles
cpu0_L1I PAGE CROSSINGS (TLB HIT):         0 
cpu0_L1I PAGE CROSSINGS (TLB MISS):         0 
cpu0_L1I AVERAGE MISS LATENCY: 13.2859 cycles
cpu0_ITLB TOTAL       ACCESS:   29497529  HIT:   27568353  MISS:    1929176  iACCESS:   29497529  iHIT:   27568353  iMISS:    1929176  dACCESS:          0  dHIT:          0  dMISS:          0  itACCESS:          0  itHIT:          0  itMISS:          0  dtACCESS:          0  dtHIT:          0  dtMISS:          0
cpu0_ITLB LOAD         ACCESS:   29497529  HIT:   27568353  MISS:    1929176  iACCESS:   29497529  iHIT:   27568353  iMISS:    1929176  dACCESS:          0  dHIT:          0  dMISS:          0  itACCESS:          0  itHIT:          0  itMISS:          0  dtACCESS:          0  dtHIT:          0  dtMISS:          0
cpu0_ITLB RFO          ACCESS:          0  HIT:          0  MISS:          0  iACCESS:          0  iHIT:          0  iMISS:          0  dACCESS:          0  dHIT:          0  dMISS:          0  itACCESS:          0  itHIT:          0  itMISS:          0  dtACCESS:          0  dtHIT:          0  dtMISS:          0
cpu0_ITLB PREFETCH     ACCESS:          0  HIT:          0  MISS:          0  iACCESS:          0  iHIT:          0  iMISS:          0  dACCESS:          0  dHIT:          0  dMISS:          0  itACCESS:          0  itHIT:          0  itMISS:          0  dtACCESS:          0  dtHIT:          0  dtMISS:          0
cpu0_ITLB WRITE        ACCESS:          0  HIT:          0  MISS:          0  iACCESS:          0  iHIT:          0  iMISS:          0  dACCESS:          0  dHIT:          0  dMISS:          0  itACCESS:          0  itHIT:          0  itMISS:          0  dtACCESS:          0  dtHIT:          0  dtMISS:          0
cpu0_ITLB TRANSLATION  ACCESS:          0  HIT:          0  MISS:          0  iACCESS:          0  iHIT:          0  iMISS:          0  dACCESS:          0  dHIT:          0  dMISS:          0  itACCESS:          0  itHIT:          0  itMISS:          0  dtACCESS:          0  dtHIT:          0  dtMISS:          0
cpu0_ITLB PREFETCH  REQUESTED:          0  ISSUED:          0  CROSSED:          0  USEFUL:     318290  USELESS:      63771
cpu0_ITLB AVERAGE iMISS LATENCY: 1.99295 cycles
cpu0_ITLB AVERAGE dMISS LATENCY: 0 cycles
cpu0_ITLB AVERAGE itMISS LATENCY: 0 cycles
cpu0_ITLB AVERAGE dtMISS LATENCY: 0 cycles
cpu0_ITLB PAGE CROSSINGS (TLB HIT):         0 
cpu0_ITLB PAGE CROSSINGS (TLB MISS):         0 
cpu0_ITLB AVERAGE MISS LATENCY: 1.99295 cycles
cpu0_DTLB TOTAL       ACCESS:   27844703  HIT:   25983701  MISS:    1861002  iACCESS:          0  iHIT:          0  iMISS:          0  dACCESS:   27844703  dHIT:   25983701  dMISS:    1861002  itACCESS:          0  itHIT:          0  itMISS:          0  dtACCESS:          0  dtHIT:          0  dtMISS:          0
cpu0_DTLB LOAD         ACCESS:   27844703  HIT:   25983701  MISS:    1861002  iACCESS:          0  iHIT:          0  iMISS:          0  dACCESS:   27844703  dHIT:   25983701  dMISS:    1861002  itACCESS:          0  itHIT:          0  itMISS:          0  dtACCESS:          0  dtHIT:          0  dtMISS:          0
cpu0_DTLB RFO          ACCESS:          0  HIT:          0  MISS:          0  iACCESS:          0  iHIT:          0  iMISS:          0  dACCESS:          0  dHIT:          0  dMISS:          0  itACCESS:          0  itHIT:          0  itMISS:          0  dtACCESS:          0  dtHIT:          0  dtMISS:          0
cpu0_DTLB PREFETCH     ACCESS:          0  HIT:          0  MISS:          0  iACCESS:          0  iHIT:          0  iMISS:          0  dACCESS:          0  dHIT:          0  dMISS:          0  itACCESS:          0  itHIT:          0  itMISS:          0  dtACCESS:          0  dtHIT:          0  dtMISS:          0
cpu0_DTLB WRITE        ACCESS:          0  HIT:          0  MISS:          0  iACCESS:          0  iHIT:          0  iMISS:          0  dACCESS:          0  dHIT:          0  dMISS:          0  itACCESS:          0  itHIT:          0  itMISS:          0  dtACCESS:          0  dtHIT:          0  dtMISS:          0
cpu0_DTLB TRANSLATION  ACCESS:          0  HIT:          0  MISS:          0  iACCESS:          0  iHIT:          0  iMISS:          0  dACCESS:          0  dHIT:          0  dMISS:          0  itACCESS:          0  itHIT:          0  itMISS:          0  dtACCESS:          0  dtHIT:          0  dtMISS:          0
cpu0_DTLB PREFETCH  REQUESTED:          0  ISSUED:          0  CROSSED:          0  USEFUL:          0  USELESS:          0
cpu0_DTLB AVERAGE iMISS LATENCY: 0 cycles
cpu0_DTLB AVERAGE dMISS LATENCY: 12.1614 cycles
cpu0_DTLB AVERAGE itMISS LATENCY: 0 cycles
cpu0_DTLB AVERAGE dtMISS LATENCY: 0 cycles
cpu0_DTLB PAGE CROSSINGS (TLB HIT):         0 
cpu0_DTLB PAGE CROSSINGS (TLB MISS):         0 
cpu0_DTLB AVERAGE MISS LATENCY: 12.1614 cycles
cpu0_STLB TOTAL       ACCESS:    1521820  HIT:    1375919  MISS:     145901  iACCESS:     382075  iHIT:     373253  iMISS:       8822  dACCESS:    1139745  dHIT:    1002666  dMISS:     137079  itACCESS:          0  itHIT:          0  itMISS:          0  dtACCESS:          0  dtHIT:          0  dtMISS:          0
cpu0_STLB LOAD         ACCESS:    1521820  HIT:    1375919  MISS:     145901  iACCESS:     382075  iHIT:     373253  iMISS:       8822  dACCESS:    1139745  dHIT:    1002666  dMISS:     137079  itACCESS:          0  itHIT:          0  itMISS:          0  dtACCESS:          0  dtHIT:          0  dtMISS:          0
cpu0_STLB RFO          ACCESS:          0  HIT:          0  MISS:          0  iACCESS:          0  iHIT:          0  iMISS:          0  dACCESS:          0  dHIT:          0  dMISS:          0  itACCESS:          0  itHIT:          0  itMISS:          0  dtACCESS:          0  dtHIT:          0  dtMISS:          0
cpu0_STLB PREFETCH     ACCESS:          0  HIT:          0  MISS:          0  iACCESS:          0  iHIT:          0  iMISS:          0  dACCESS:          0  dHIT:          0  dMISS:          0  itACCESS:          0  itHIT:          0  itMISS:          0  dtACCESS:          0  dtHIT:          0  dtMISS:          0
cpu0_STLB WRITE        ACCESS:          0  HIT:          0  MISS:          0  iACCESS:          0  iHIT:          0  iMISS:          0  dACCESS:          0  dHIT:          0  dMISS:          0  itACCESS:          0  itHIT:          0  itMISS:          0  dtACCESS:          0  dtHIT:          0  dtMISS:          0
cpu0_STLB TRANSLATION  ACCESS:          0  HIT:          0  MISS:          0  iACCESS:          0  iHIT:          0  iMISS:          0  dACCESS:          0  dHIT:          0  dMISS:          0  itACCESS:          0  itHIT:          0  itMISS:          0  dtACCESS:          0  dtHIT:          0  dtMISS:          0
cpu0_STLB PREFETCH  REQUESTED:          0  ISSUED:          0  CROSSED:          0  USEFUL:          0  USELESS:          0
cpu0_STLB AVERAGE iMISS LATENCY: 6.05014 cycles
cpu0_STLB AVERAGE dMISS LATENCY: 92.6244 cycles
cpu0_STLB AVERAGE itMISS LATENCY: 0 cycles
cpu0_STLB AVERAGE dtMISS LATENCY: 0 cycles
cpu0_STLB PAGE CROSSINGS (TLB HIT):         0 
cpu0_STLB PAGE CROSSINGS (TLB MISS):         0 
cpu0_STLB AVERAGE MISS LATENCY: 98.6746 cycles
cpu0_L1D TOTAL       ACCESS:   41568341  HIT:   38128985  MISS:    3439356  iACCESS:          0  iHIT:          0  iMISS:          0  dACCESS:   41353704  dHIT:   38115976  dMISS:    3237728  itACCESS:      10104  itHIT:       1057  itMISS:       9047  dtACCESS:     204533  dtHIT:      11952  dtMISS:     192581
cpu0_L1D LOAD         ACCESS:   19040467  HIT:   17562009  MISS:    1478458  iACCESS:          0  iHIT:          0  iMISS:          0  dACCESS:   19040467  dHIT:   17562009  dMISS:    1478458  itACCESS:          0  itHIT:          0  itMISS:          0  dtACCESS:          0  dtHIT:          0  dtMISS:          0
cpu0_L1D RFO          ACCESS:          0  HIT:          0  MISS:          0  iACCESS:          0  iHIT:          0  iMISS:          0  dACCESS:          0  dHIT:          0  dMISS:          0  itACCESS:          0  itHIT:          0  itMISS:          0  dtACCESS:          0  dtHIT:          0  dtMISS:          0
cpu0_L1D PREFETCH     ACCESS:   12135816  HIT:   10796193  MISS:    1339623  iACCESS:          0  iHIT:          0  iMISS:          0  dACCESS:   12135816  dHIT:   10796193  dMISS:    1339623  itACCESS:          0  itHIT:          0  itMISS:          0  dtACCESS:          0  dtHIT:          0  dtMISS:          0
cpu0_L1D WRITE        ACCESS:   10177421  HIT:    9757774  MISS:     419647  iACCESS:          0  iHIT:          0  iMISS:          0  dACCESS:   10177421  dHIT:    9757774  dMISS:     419647  itACCESS:          0  itHIT:          0  itMISS:          0  dtACCESS:          0  dtHIT:          0  dtMISS:          0
cpu0_L1D TRANSLATION  ACCESS:     214637  HIT:      13009  MISS:     201628  iACCESS:          0  iHIT:          0  iMISS:          0  dACCESS:          0  dHIT:          0  dMISS:          0  itACCESS:      10104  itHIT:       1057  itMISS:       9047  dtACCESS:     204533  dtHIT:      11952  dtMISS:     192581
cpu0_L1D PREFETCH  REQUESTED:   19040467  ISSUED:   16935937  CROSSED:          0  USEFUL:     307743  USELESS:     704039
cpu0_L1D AVERAGE iMISS LATENCY: 0 cycles
cpu0_L1D AVERAGE dMISS LATENCY: 33.8199 cycles
cpu0_L1D AVERAGE itMISS LATENCY: 0.229138 cycles
cpu0_L1D AVERAGE dtMISS LATENCY: 3.1487 cycles
cpu0_L1D PAGE CROSSINGS (TLB HIT):         0 
cpu0_L1D PAGE CROSSINGS (TLB MISS):         0 
cpu0_L1D AVERAGE MISS LATENCY: 37.1977 cycles
cpu0_L2C TOTAL       ACCESS:    7028092  HIT:    1709871  MISS:    5318221  iACCESS:    3319496  iHIT:     883310  iMISS:    2436186  dACCESS:    3516922  dHIT:     725270  dMISS:    2791652  itACCESS:       9047  itHIT:       4228  itMISS:       4819  dtACCESS:     182627  dtHIT:      97063  dtMISS:      85564
cpu0_L2C LOAD         ACCESS:    1708618  HIT:     302184  MISS:    1406434  iACCESS:     776101  iHIT:     148348  iMISS:     627753  dACCESS:     932517  dHIT:     153836  dMISS:     778681  itACCESS:          0  itHIT:          0  itMISS:          0  dtACCESS:          0  dtHIT:          0  dtMISS:          0
cpu0_L2C RFO          ACCESS:     158672  HIT:      53694  MISS:     104978  iACCESS:          0  iHIT:          0  iMISS:          0  dACCESS:     158672  dHIT:      53694  dMISS:     104978  itACCESS:          0  itHIT:          0  itMISS:          0  dtACCESS:          0  dtHIT:          0  dtMISS:          0
cpu0_L2C PREFETCH     ACCESS:    4686998  HIT:    1112502  MISS:    3574496  iACCESS:    2543395  iHIT:     734962  iMISS:    1808433  dACCESS:    2143603  dHIT:     377540  dMISS:    1766063  itACCESS:          0  itHIT:          0  itMISS:          0  dtACCESS:          0  dtHIT:          0  dtMISS:          0
cpu0_L2C WRITE        ACCESS:     282130  HIT:     140200  MISS:     141930  iACCESS:          0  iHIT:          0  iMISS:          0  dACCESS:     282130  dHIT:     140200  dMISS:     141930  itACCESS:          0  itHIT:          0  itMISS:          0  dtACCESS:          0  dtHIT:          0  dtMISS:          0
cpu0_L2C TRANSLATION  ACCESS:     191674  HIT:     101291  MISS:      90383  iACCESS:          0  iHIT:          0  iMISS:          0  dACCESS:          0  dHIT:          0  dMISS:          0  itACCESS:       9047  itHIT:       4228  itMISS:       4819  dtACCESS:     182627  dtHIT:      97063  dtMISS:      85564
cpu0_L2C PREFETCH  REQUESTED:    1395833  ISSUED:    1395833  CROSSED:          0  USEFUL:     416148  USELESS:     378858
cpu0_L2C AVERAGE iMISS LATENCY: 15.1641 cycles
cpu0_L2C AVERAGE dMISS LATENCY: 25.5205 cycles
cpu0_L2C AVERAGE itMISS LATENCY: 0.131939 cycles
cpu0_L2C AVERAGE dtMISS LATENCY: 1.70921 cycles
cpu0_L2C PAGE CROSSINGS (TLB HIT):         0 
cpu0_L2C PAGE CROSSINGS (TLB MISS):         0 
cpu0_L2C AVERAGE MISS LATENCY: 42.5257 cycles
LLC TOTAL       ACCESS:    5199373  HIT:    4383180  MISS:     816193  iACCESS:    2381422  iHIT:    2146218  iMISS:     235204  dACCESS:    2727568  dHIT:    2192111  dMISS:     535457  itACCESS:       4819  itHIT:       1381  itMISS:       3438  dtACCESS:      85564  dtHIT:      43470  dtMISS:      42094
LLC LOAD         ACCESS:    1404622  HIT:    1225681  MISS:     178941  iACCESS:     626346  iHIT:     576602  iMISS:      49744  dACCESS:     778276  dHIT:     649079  dMISS:     129197  itACCESS:          0  itHIT:          0  itMISS:          0  dtACCESS:          0  dtHIT:          0  dtMISS:          0
LLC RFO          ACCESS:     104975  HIT:      70742  MISS:      34233  iACCESS:          0  iHIT:          0  iMISS:          0  dACCESS:     104975  dHIT:      70742  dMISS:      34233  itACCESS:          0  itHIT:          0  itMISS:          0  dtACCESS:          0  dtHIT:          0  dtMISS:          0
LLC PREFETCH     ACCESS:    3468466  HIT:    2920336  MISS:     548130  iACCESS:    1755076  iHIT:    1569616  iMISS:     185460  dACCESS:    1713390  dHIT:    1350720  dMISS:     362670  itACCESS:          0  itHIT:          0  itMISS:          0  dtACCESS:          0  dtHIT:          0  dtMISS:          0
LLC WRITE        ACCESS:     130927  HIT:     121570  MISS:       9357  iACCESS:          0  iHIT:          0  iMISS:          0  dACCESS:     130927  dHIT:     121570  dMISS:       9357  itACCESS:          0  itHIT:          0  itMISS:          0  dtACCESS:          0  dtHIT:          0  dtMISS:          0
LLC TRANSLATION  ACCESS:      90383  HIT:      44851  MISS:      45532  iACCESS:          0  iHIT:          0  iMISS:          0  dACCESS:          0  dHIT:          0  dMISS:          0  itACCESS:       4819  itHIT:       1381  itMISS:       3438  dtACCESS:      85564  dtHIT:      43470  dtMISS:      42094
LLC PREFETCH  REQUESTED:          0  ISSUED:          0  CROSSED:          0  USEFUL:          0  USELESS:          0
LLC AVERAGE iMISS LATENCY: 42.5417 cycles
LLC AVERAGE dMISS LATENCY: 104.803 cycles
LLC AVERAGE itMISS LATENCY: 0.743681 cycles
LLC AVERAGE dtMISS LATENCY: 9.09411 cycles
LLC PAGE CROSSINGS (TLB HIT):         0 
LLC PAGE CROSSINGS (TLB MISS):         0 
LLC AVERAGE MISS LATENCY: 157.182 cycles

PageTableWalker TOTAL       ACCESS:      71898  
PageTableWalker AVERAGE LATENCY: 4.99767 cycles
PageTableWalker TOTAL LATENCY: 359322 cycles

DRAM Statistics
Channel 0
 RQ ROW_BUFFER_HIT:     218707
  ROW_BUFFER_MISS:     588079
 AVG DBUS CONGESTED CYCLE:    3.62623
 WQ ROW_BUFFER_HIT:      15205
  ROW_BUFFER_MISS:      20347  FULL:          0

