last_page:0x200000000000000
VMEM_RES_CAP:0x100000
PAGE_SIZE:4096
LOG2_PAGE_SIZE:12
LOG2_PAGE_TABLE_SIZE:9
page_table_levels:5
WARNING: physical memory size is smaller than virtual memory size
FDiP enabled with aggresivity 16

*** ChampSim Multicore Out-of-Order Simulator ***

Warmup Instructions: 50000000
Simulation Instructions: 100000000
Number of CPUs: 1
Small page size: 4096
Large page size: 2097152

CPU 0 Bimodal branch predictor
Basic BTB sets: 1024 ways: 8 indirect buffer size: 4096 RAS size: 64
Instruction page size distrubution: 0
Loading instruction page size distribution from /home/bsc/bsc018186/scratch/itp_asplos25_AE/dump/srv606_ap.pdst
Data page size distrubution: 0
Loading data page size distribution from /home/bsc/bsc018186/scratch/itp_asplos25_AE/dump/srv606_ap.pdst
cpu0_L2C IP-based stride prefetcher
cpu0_L1D next line prefetcher
cpu0_STLB using iTP with max lru@8
cpu0_STLB using iTP with instr@0 and data@2
Init sat counter with 3 bits (max:50).
cpu0_L1I next line prefetcher
Off-chip DRAM Size: 4 GiB Channels: 1 Width: 64-bit Data Rate: 3200 MT/s
Heartbeat CPU 0 instructions: 10000001 cycles: 2500151 heartbeat IPC: 3.99976 cumulative IPC: 3.99976 (Simulation time: 0 hr 0 min 38 sec) 
Heartbeat CPU 0 instructions: 20000000 cycles: 5000199 heartbeat IPC: 3.99993 cumulative IPC: 3.99985 (Simulation time: 0 hr 1 min 18 sec) 
Heartbeat CPU 0 instructions: 30000001 cycles: 7500262 heartbeat IPC: 3.9999 cumulative IPC: 3.99987 (Simulation time: 0 hr 1 min 58 sec) 
Heartbeat CPU 0 instructions: 40000001 cycles: 10000262 heartbeat IPC: 4 cumulative IPC: 3.9999 (Simulation time: 0 hr 2 min 39 sec) 
Heartbeat CPU 0 instructions: 50000003 cycles: 12500350 heartbeat IPC: 3.99987 cumulative IPC: 3.99989 (Simulation time: 0 hr 3 min 20 sec) 
Warmup finished CPU 0 instructions: 50000003 cycles: 12500351 cumulative IPC: 3.99989 (Simulation time: 0 hr 3 min 20 sec) 

Warmup complete CPU 0 instructions: 50000003 cycles: 12500351 (Simulation time: 0 hr 3 min 20 sec) 

Heartbeat CPU 0 instructions: 60000001 cycles: 27493358 heartbeat IPC: 0.666978 cumulative IPC: 0.666978 (Simulation time: 0 hr 4 min 25 sec) 
Heartbeat CPU 0 instructions: 70000000 cycles: 41279490 heartbeat IPC: 0.725367 cumulative IPC: 0.694948 (Simulation time: 0 hr 5 min 27 sec) 
Heartbeat CPU 0 instructions: 80000000 cycles: 55970430 heartbeat IPC: 0.680692 cumulative IPC: 0.69013 (Simulation time: 0 hr 6 min 30 sec) 
Heartbeat CPU 0 instructions: 90000002 cycles: 71013597 heartbeat IPC: 0.664754 cumulative IPC: 0.683606 (Simulation time: 0 hr 7 min 35 sec) 
Heartbeat CPU 0 instructions: 100000004 cycles: 85833061 heartbeat IPC: 0.674789 cumulative IPC: 0.681824 (Simulation time: 0 hr 8 min 38 sec) 
*** Reached end of trace: /gpfs/projects/bsc18/MN4/bsc18/romol/ChampSim/traces/qualcomm_srv/srv606_ap.champsimtrace.xz
Heartbeat CPU 0 instructions: 110000001 cycles: 99842437 heartbeat IPC: 0.713808 cumulative IPC: 0.686955 (Simulation time: 0 hr 9 min 41 sec) 
Heartbeat CPU 0 instructions: 120000004 cycles: 114924141 heartbeat IPC: 0.663056 cumulative IPC: 0.683435 (Simulation time: 0 hr 10 min 47 sec) 
Heartbeat CPU 0 instructions: 130000003 cycles: 129777975 heartbeat IPC: 0.673227 cumulative IPC: 0.682143 (Simulation time: 0 hr 11 min 51 sec) 
Heartbeat CPU 0 instructions: 140000000 cycles: 143631389 heartbeat IPC: 0.721844 cumulative IPC: 0.686337 (Simulation time: 0 hr 12 min 53 sec) 
Heartbeat CPU 0 instructions: 150000003 cycles: 159848359 heartbeat IPC: 0.616639 cumulative IPC: 0.678666 (Simulation time: 0 hr 13 min 59 sec) 
Simulation finished CPU 0 instructions: 100000000 cycles: 147348009 cumulative IPC: 0.678666 (Simulation time: 0 hr 13 min 59 sec) 

Simulation complete CPU 0 instructions: 100000000 cycles: 147348009 (Simulation time: 0 hr 13 min 59 sec) 


ChampSim completed all CPUs

Saving instructions large page distribution to /home/bsc/bsc018186/scratch/itp_asplos25_AE/dump/srv606_ap.pdst...
Saving data large page distribution to /home/bsc/bsc018186/scratch/itp_asplos25_AE/dump/srv606_ap.pdst...
=== Simulation ===
CPU 0 runs /gpfs/projects/bsc18/MN4/bsc18/romol/ChampSim/traces/qualcomm_srv/srv606_ap.champsimtrace.xz

Region of Interest Statistics

CPU 0 cumulative IPC: 0.678666 instructions: 100000000 cycles: 147348009
CPU 0 Branch Prediction Accuracy: 83.5483% MPKI: 29.4216 Average ROB Occupancy at Mispredict: 12.9979
Branch type MPKI
BRANCH_DIRECT_JUMP: 1.00797
BRANCH_INDIRECT: 15.1839
BRANCH_CONDITIONAL: 9.58322
BRANCH_DIRECT_CALL: 1.81744
BRANCH_INDIRECT_CALL: 0.508531
BRANCH_RETURN: 1.32054

Instructions large pages: 0
Instructions small pages: 1024
Large page distribution for instructions: 0%

Data large pages: 0
Data small pages: 9928
Large page distribution for data: 0%

cpu0_L1I TOTAL       ACCESS:   34729125  HIT:   26955949  MISS:    7773176  iACCESS:   34729125  iHIT:   26955949  iMISS:    7773176  dACCESS:          0  dHIT:          0  dMISS:          0  itACCESS:          0  itHIT:          0  itMISS:          0  dtACCESS:          0  dtHIT:          0  dtMISS:          0
cpu0_L1I LOAD         ACCESS:   10216812  HIT:    8025847  MISS:    2190965  iACCESS:   10216812  iHIT:    8025847  iMISS:    2190965  dACCESS:          0  dHIT:          0  dMISS:          0  itACCESS:          0  itHIT:          0  itMISS:          0  dtACCESS:          0  dtHIT:          0  dtMISS:          0
cpu0_L1I RFO          ACCESS:          0  HIT:          0  MISS:          0  iACCESS:          0  iHIT:          0  iMISS:          0  dACCESS:          0  dHIT:          0  dMISS:          0  itACCESS:          0  itHIT:          0  itMISS:          0  dtACCESS:          0  dtHIT:          0  dtMISS:          0
cpu0_L1I PREFETCH     ACCESS:   24512313  HIT:   18930102  MISS:    5582211  iACCESS:   24512313  iHIT:   18930102  iMISS:    5582211  dACCESS:          0  dHIT:          0  dMISS:          0  itACCESS:          0  itHIT:          0  itMISS:          0  dtACCESS:          0  dtHIT:          0  dtMISS:          0
cpu0_L1I WRITE        ACCESS:          0  HIT:          0  MISS:          0  iACCESS:          0  iHIT:          0  iMISS:          0  dACCESS:          0  dHIT:          0  dMISS:          0  itACCESS:          0  itHIT:          0  itMISS:          0  dtACCESS:          0  dtHIT:          0  dtMISS:          0
cpu0_L1I TRANSLATION  ACCESS:          0  HIT:          0  MISS:          0  iACCESS:          0  iHIT:          0  iMISS:          0  dACCESS:          0  dHIT:          0  dMISS:          0  itACCESS:          0  itHIT:          0  itMISS:          0  dtACCESS:          0  dtHIT:          0  dtMISS:          0
cpu0_L1I PREFETCH  REQUESTED:   27107850  ISSUED:   27107850  CROSSED:          0  USEFUL:    1887987  USELESS:     627353
cpu0_L1I AVERAGE iMISS LATENCY: 12.5251 cycles
cpu0_L1I AVERAGE dMISS LATENCY: 0 cycles
cpu0_L1I AVERAGE itMISS LATENCY: 0 cycles
cpu0_L1I AVERAGE dtMISS LATENCY: 0 cycles
cpu0_L1I PAGE CROSSINGS (TLB HIT):         0 
cpu0_L1I PAGE CROSSINGS (TLB MISS):         0 
cpu0_L1I AVERAGE MISS LATENCY: 12.5251 cycles
cpu0_ITLB TOTAL       ACCESS:   28993218  HIT:   27015567  MISS:    1977651  iACCESS:   28993218  iHIT:   27015567  iMISS:    1977651  dACCESS:          0  dHIT:          0  dMISS:          0  itACCESS:          0  itHIT:          0  itMISS:          0  dtACCESS:          0  dtHIT:          0  dtMISS:          0
cpu0_ITLB LOAD         ACCESS:   28993218  HIT:   27015567  MISS:    1977651  iACCESS:   28993218  iHIT:   27015567  iMISS:    1977651  dACCESS:          0  dHIT:          0  dMISS:          0  itACCESS:          0  itHIT:          0  itMISS:          0  dtACCESS:          0  dtHIT:          0  dtMISS:          0
cpu0_ITLB RFO          ACCESS:          0  HIT:          0  MISS:          0  iACCESS:          0  iHIT:          0  iMISS:          0  dACCESS:          0  dHIT:          0  dMISS:          0  itACCESS:          0  itHIT:          0  itMISS:          0  dtACCESS:          0  dtHIT:          0  dtMISS:          0
cpu0_ITLB PREFETCH     ACCESS:          0  HIT:          0  MISS:          0  iACCESS:          0  iHIT:          0  iMISS:          0  dACCESS:          0  dHIT:          0  dMISS:          0  itACCESS:          0  itHIT:          0  itMISS:          0  dtACCESS:          0  dtHIT:          0  dtMISS:          0
cpu0_ITLB WRITE        ACCESS:          0  HIT:          0  MISS:          0  iACCESS:          0  iHIT:          0  iMISS:          0  dACCESS:          0  dHIT:          0  dMISS:          0  itACCESS:          0  itHIT:          0  itMISS:          0  dtACCESS:          0  dtHIT:          0  dtMISS:          0
cpu0_ITLB TRANSLATION  ACCESS:          0  HIT:          0  MISS:          0  iACCESS:          0  iHIT:          0  iMISS:          0  dACCESS:          0  dHIT:          0  dMISS:          0  itACCESS:          0  itHIT:          0  itMISS:          0  dtACCESS:          0  dtHIT:          0  dtMISS:          0
cpu0_ITLB PREFETCH  REQUESTED:          0  ISSUED:          0  CROSSED:          0  USEFUL:     320752  USELESS:      67170
cpu0_ITLB AVERAGE iMISS LATENCY: 2.105 cycles
cpu0_ITLB AVERAGE dMISS LATENCY: 0 cycles
cpu0_ITLB AVERAGE itMISS LATENCY: 0 cycles
cpu0_ITLB AVERAGE dtMISS LATENCY: 0 cycles
cpu0_ITLB PAGE CROSSINGS (TLB HIT):         0 
cpu0_ITLB PAGE CROSSINGS (TLB MISS):         0 
cpu0_ITLB AVERAGE MISS LATENCY: 2.105 cycles
cpu0_DTLB TOTAL       ACCESS:   27640822  HIT:   25591864  MISS:    2048958  iACCESS:          0  iHIT:          0  iMISS:          0  dACCESS:   27640822  dHIT:   25591864  dMISS:    2048958  itACCESS:          0  itHIT:          0  itMISS:          0  dtACCESS:          0  dtHIT:          0  dtMISS:          0
cpu0_DTLB LOAD         ACCESS:   27640822  HIT:   25591864  MISS:    2048958  iACCESS:          0  iHIT:          0  iMISS:          0  dACCESS:   27640822  dHIT:   25591864  dMISS:    2048958  itACCESS:          0  itHIT:          0  itMISS:          0  dtACCESS:          0  dtHIT:          0  dtMISS:          0
cpu0_DTLB RFO          ACCESS:          0  HIT:          0  MISS:          0  iACCESS:          0  iHIT:          0  iMISS:          0  dACCESS:          0  dHIT:          0  dMISS:          0  itACCESS:          0  itHIT:          0  itMISS:          0  dtACCESS:          0  dtHIT:          0  dtMISS:          0
cpu0_DTLB PREFETCH     ACCESS:          0  HIT:          0  MISS:          0  iACCESS:          0  iHIT:          0  iMISS:          0  dACCESS:          0  dHIT:          0  dMISS:          0  itACCESS:          0  itHIT:          0  itMISS:          0  dtACCESS:          0  dtHIT:          0  dtMISS:          0
cpu0_DTLB WRITE        ACCESS:          0  HIT:          0  MISS:          0  iACCESS:          0  iHIT:          0  iMISS:          0  dACCESS:          0  dHIT:          0  dMISS:          0  itACCESS:          0  itHIT:          0  itMISS:          0  dtACCESS:          0  dtHIT:          0  dtMISS:          0
cpu0_DTLB TRANSLATION  ACCESS:          0  HIT:          0  MISS:          0  iACCESS:          0  iHIT:          0  iMISS:          0  dACCESS:          0  dHIT:          0  dMISS:          0  itACCESS:          0  itHIT:          0  itMISS:          0  dtACCESS:          0  dtHIT:          0  dtMISS:          0
cpu0_DTLB PREFETCH  REQUESTED:          0  ISSUED:          0  CROSSED:          0  USEFUL:          0  USELESS:          0
cpu0_DTLB AVERAGE iMISS LATENCY: 0 cycles
cpu0_DTLB AVERAGE dMISS LATENCY: 16.4027 cycles
cpu0_DTLB AVERAGE itMISS LATENCY: 0 cycles
cpu0_DTLB AVERAGE dtMISS LATENCY: 0 cycles
cpu0_DTLB PAGE CROSSINGS (TLB HIT):         0 
cpu0_DTLB PAGE CROSSINGS (TLB MISS):         0 
cpu0_DTLB AVERAGE MISS LATENCY: 16.4027 cycles
cpu0_STLB TOTAL       ACCESS:    1631883  HIT:    1488054  MISS:     143829  iACCESS:     387923  iHIT:     380411  iMISS:       7512  dACCESS:    1243960  dHIT:    1107643  dMISS:     136317  itACCESS:          0  itHIT:          0  itMISS:          0  dtACCESS:          0  dtHIT:          0  dtMISS:          0
cpu0_STLB LOAD         ACCESS:    1631883  HIT:    1488054  MISS:     143829  iACCESS:     387923  iHIT:     380411  iMISS:       7512  dACCESS:    1243960  dHIT:    1107643  dMISS:     136317  itACCESS:          0  itHIT:          0  itMISS:          0  dtACCESS:          0  dtHIT:          0  dtMISS:          0
cpu0_STLB RFO          ACCESS:          0  HIT:          0  MISS:          0  iACCESS:          0  iHIT:          0  iMISS:          0  dACCESS:          0  dHIT:          0  dMISS:          0  itACCESS:          0  itHIT:          0  itMISS:          0  dtACCESS:          0  dtHIT:          0  dtMISS:          0
cpu0_STLB PREFETCH     ACCESS:          0  HIT:          0  MISS:          0  iACCESS:          0  iHIT:          0  iMISS:          0  dACCESS:          0  dHIT:          0  dMISS:          0  itACCESS:          0  itHIT:          0  itMISS:          0  dtACCESS:          0  dtHIT:          0  dtMISS:          0
cpu0_STLB WRITE        ACCESS:          0  HIT:          0  MISS:          0  iACCESS:          0  iHIT:          0  iMISS:          0  dACCESS:          0  dHIT:          0  dMISS:          0  itACCESS:          0  itHIT:          0  itMISS:          0  dtACCESS:          0  dtHIT:          0  dtMISS:          0
cpu0_STLB TRANSLATION  ACCESS:          0  HIT:          0  MISS:          0  iACCESS:          0  iHIT:          0  iMISS:          0  dACCESS:          0  dHIT:          0  dMISS:          0  itACCESS:          0  itHIT:          0  itMISS:          0  dtACCESS:          0  dtHIT:          0  dtMISS:          0
cpu0_STLB PREFETCH  REQUESTED:          0  ISSUED:          0  CROSSED:          0  USEFUL:          0  USELESS:          0
cpu0_STLB AVERAGE iMISS LATENCY: 8.00352 cycles
cpu0_STLB AVERAGE dMISS LATENCY: 164.551 cycles
cpu0_STLB AVERAGE itMISS LATENCY: 0 cycles
cpu0_STLB AVERAGE dtMISS LATENCY: 0 cycles
cpu0_STLB PAGE CROSSINGS (TLB HIT):         0 
cpu0_STLB PAGE CROSSINGS (TLB MISS):         0 
cpu0_STLB AVERAGE MISS LATENCY: 172.555 cycles
cpu0_L1D TOTAL       ACCESS:   41286060  HIT:   37874405  MISS:    3411655  iACCESS:          0  iHIT:          0  iMISS:          0  dACCESS:   41072571  dHIT:   37860598  dMISS:    3211973  itACCESS:       9408  itHIT:        909  itMISS:       8499  dtACCESS:     204081  dtHIT:      12898  dtMISS:     191183
cpu0_L1D LOAD         ACCESS:   18825207  HIT:   17360933  MISS:    1464274  iACCESS:          0  iHIT:          0  iMISS:          0  dACCESS:   18825207  dHIT:   17360933  dMISS:    1464274  itACCESS:          0  itHIT:          0  itMISS:          0  dtACCESS:          0  dtHIT:          0  dtMISS:          0
cpu0_L1D RFO          ACCESS:          0  HIT:          0  MISS:          0  iACCESS:          0  iHIT:          0  iMISS:          0  dACCESS:          0  dHIT:          0  dMISS:          0  itACCESS:          0  itHIT:          0  itMISS:          0  dtACCESS:          0  dtHIT:          0  dtMISS:          0
cpu0_L1D PREFETCH     ACCESS:   12054301  HIT:   10746208  MISS:    1308093  iACCESS:          0  iHIT:          0  iMISS:          0  dACCESS:   12054301  dHIT:   10746208  dMISS:    1308093  itACCESS:          0  itHIT:          0  itMISS:          0  dtACCESS:          0  dtHIT:          0  dtMISS:          0
cpu0_L1D WRITE        ACCESS:   10193063  HIT:    9753457  MISS:     439606  iACCESS:          0  iHIT:          0  iMISS:          0  dACCESS:   10193063  dHIT:    9753457  dMISS:     439606  itACCESS:          0  itHIT:          0  itMISS:          0  dtACCESS:          0  dtHIT:          0  dtMISS:          0
cpu0_L1D TRANSLATION  ACCESS:     213489  HIT:      13807  MISS:     199682  iACCESS:          0  iHIT:          0  iMISS:          0  dACCESS:          0  dHIT:          0  dMISS:          0  itACCESS:       9408  itHIT:        909  itMISS:       8499  dtACCESS:     204081  dtHIT:      12898  dtMISS:     191183
cpu0_L1D PREFETCH  REQUESTED:   18825207  ISSUED:   16862152  CROSSED:          0  USEFUL:     303614  USELESS:     697508
cpu0_L1D AVERAGE iMISS LATENCY: 0 cycles
cpu0_L1D AVERAGE dMISS LATENCY: 32.9458 cycles
cpu0_L1D AVERAGE itMISS LATENCY: 0.31319 cycles
cpu0_L1D AVERAGE dtMISS LATENCY: 6.11237 cycles
cpu0_L1D PAGE CROSSINGS (TLB HIT):         0 
cpu0_L1D PAGE CROSSINGS (TLB MISS):         0 
cpu0_L1D AVERAGE MISS LATENCY: 39.3713 cycles
cpu0_L2C TOTAL       ACCESS:    6891177  HIT:    4054320  MISS:    2836857  iACCESS:    3276391  iHIT:    2222468  iMISS:    1053923  dACCESS:    3423950  dHIT:    1797709  dMISS:    1626241  itACCESS:       8491  itHIT:       1535  itMISS:       6956  dtACCESS:     182345  dtHIT:      32608  dtMISS:     149737
cpu0_L2C LOAD         ACCESS:    1723629  HIT:    1042024  MISS:     681605  iACCESS:     797054  iHIT:     563912  iMISS:     233142  dACCESS:     926575  dHIT:     478112  dMISS:     448463  itACCESS:          0  itHIT:          0  itMISS:          0  dtACCESS:          0  dtHIT:          0  dtMISS:          0
cpu0_L2C RFO          ACCESS:     157050  HIT:      69734  MISS:      87316  iACCESS:          0  iHIT:          0  iMISS:          0  dACCESS:     157050  dHIT:      69734  dMISS:      87316  itACCESS:          0  itHIT:          0  itMISS:          0  dtACCESS:          0  dtHIT:          0  dtMISS:          0
cpu0_L2C PREFETCH     ACCESS:    4535901  HIT:    2625494  MISS:    1910407  iACCESS:    2479337  iHIT:    1658556  iMISS:     820781  dACCESS:    2056564  dHIT:     966938  dMISS:    1089626  itACCESS:          0  itHIT:          0  itMISS:          0  dtACCESS:          0  dtHIT:          0  dtMISS:          0
cpu0_L2C WRITE        ACCESS:     283761  HIT:     282925  MISS:        836  iACCESS:          0  iHIT:          0  iMISS:          0  dACCESS:     283761  dHIT:     282925  dMISS:        836  itACCESS:          0  itHIT:          0  itMISS:          0  dtACCESS:          0  dtHIT:          0  dtMISS:          0
cpu0_L2C TRANSLATION  ACCESS:     190836  HIT:      34143  MISS:     156693  iACCESS:          0  iHIT:          0  iMISS:          0  dACCESS:          0  dHIT:          0  dMISS:          0  itACCESS:       8491  itHIT:       1535  itMISS:       6956  dtACCESS:     182345  dtHIT:      32608  dtMISS:     149737
cpu0_L2C PREFETCH  REQUESTED:    1301193  ISSUED:    1301193  CROSSED:          0  USEFUL:     297389  USELESS:     217343
cpu0_L2C AVERAGE iMISS LATENCY: 24.1045 cycles
cpu0_L2C AVERAGE dMISS LATENCY: 45.755 cycles
cpu0_L2C AVERAGE itMISS LATENCY: 0.347163 cycles
cpu0_L2C AVERAGE dtMISS LATENCY: 6.71453 cycles
cpu0_L2C PAGE CROSSINGS (TLB HIT):         0 
cpu0_L2C PAGE CROSSINGS (TLB MISS):         0 
cpu0_L2C AVERAGE MISS LATENCY: 76.9211 cycles
LLC TOTAL       ACCESS:    2876182  HIT:    1831360  MISS:    1044822  iACCESS:    1005682  iHIT:     677011  iMISS:     328671  dACCESS:    1713807  dHIT:    1093920  dMISS:     619887  itACCESS:       6956  itHIT:       2159  itMISS:       4797  dtACCESS:     149737  dtHIT:      58270  dtMISS:      91467
LLC LOAD         ACCESS:     680426  HIT:     447082  MISS:     233344  iACCESS:     232135  iHIT:     158534  iMISS:      73601  dACCESS:     448291  dHIT:     288548  dMISS:     159743  itACCESS:          0  itHIT:          0  itMISS:          0  dtACCESS:          0  dtHIT:          0  dtMISS:          0
LLC RFO          ACCESS:      87316  HIT:      47325  MISS:      39991  iACCESS:          0  iHIT:          0  iMISS:          0  dACCESS:      87316  dHIT:      47325  dMISS:      39991  itACCESS:          0  itHIT:          0  itMISS:          0  dtACCESS:          0  dtHIT:          0  dtMISS:          0
LLC PREFETCH     ACCESS:    1812379  HIT:    1143739  MISS:     668640  iACCESS:     773547  iHIT:     518477  iMISS:     255070  dACCESS:    1038832  dHIT:     625262  dMISS:     413570  itACCESS:          0  itHIT:          0  itMISS:          0  dtACCESS:          0  dtHIT:          0  dtMISS:          0
LLC WRITE        ACCESS:     139368  HIT:     132785  MISS:       6583  iACCESS:          0  iHIT:          0  iMISS:          0  dACCESS:     139368  dHIT:     132785  dMISS:       6583  itACCESS:          0  itHIT:          0  itMISS:          0  dtACCESS:          0  dtHIT:          0  dtMISS:          0
LLC TRANSLATION  ACCESS:     156693  HIT:      60429  MISS:      96264  iACCESS:          0  iHIT:          0  iMISS:          0  dACCESS:          0  dHIT:          0  dMISS:          0  itACCESS:       6956  itHIT:       2159  itMISS:       4797  dtACCESS:     149737  dtHIT:      58270  dtMISS:      91467
LLC PREFETCH  REQUESTED:          0  ISSUED:          0  CROSSED:          0  USEFUL:          0  USELESS:          0
LLC AVERAGE iMISS LATENCY: 46.7603 cycles
LLC AVERAGE dMISS LATENCY: 95.0756 cycles
LLC AVERAGE itMISS LATENCY: 0.812032 cycles
LLC AVERAGE dtMISS LATENCY: 15.427 cycles
LLC PAGE CROSSINGS (TLB HIT):         0 
LLC PAGE CROSSINGS (TLB MISS):         0 
LLC AVERAGE MISS LATENCY: 158.075 cycles

PageTableWalker TOTAL       ACCESS:      73218  
PageTableWalker AVERAGE LATENCY: 5.80549 cycles
PageTableWalker TOTAL LATENCY: 425066 cycles

DRAM Statistics
Channel 0
 RQ ROW_BUFFER_HIT:     274375
  ROW_BUFFER_MISS:     763785
 AVG DBUS CONGESTED CYCLE:    3.60974
 WQ ROW_BUFFER_HIT:      21672
  ROW_BUFFER_MISS:      21581  FULL:          0

