last_page:0x200000000000000
VMEM_RES_CAP:0x100000
PAGE_SIZE:4096
LOG2_PAGE_SIZE:12
LOG2_PAGE_TABLE_SIZE:9
page_table_levels:5
WARNING: physical memory size is smaller than virtual memory size
FDiP enabled with aggresivity 16

*** ChampSim Multicore Out-of-Order Simulator ***

Warmup Instructions: 50000000
Simulation Instructions: 100000000
Number of CPUs: 1
Small page size: 4096
Large page size: 2097152

CPU 0 Bimodal branch predictor
Basic BTB sets: 1024 ways: 8 indirect buffer size: 4096 RAS size: 64
Instruction page size distrubution: 0
Loading instruction page size distribution from /home/bsc/bsc018186/scratch/itp_asplos25_AE/dump/srv606_ap.pdst
Data page size distrubution: 0
Loading data page size distribution from /home/bsc/bsc018186/scratch/itp_asplos25_AE/dump/srv606_ap.pdst
cpu0_L2C IP-based stride prefetcher
cpu0_L2C is using PTP replacement policy:
	TLB_STRESS_THRESHOLD:0
	PTE_EVICTION_RATIO:0
cpu0_L1D next line prefetcher
CHiRPing...
cpu0_L1I next line prefetcher
Off-chip DRAM Size: 4 GiB Channels: 1 Width: 64-bit Data Rate: 3200 MT/s
Heartbeat CPU 0 instructions: 10000001 cycles: 2500134 heartbeat IPC: 3.99979 cumulative IPC: 3.99979 (Simulation time: 0 hr 0 min 39 sec) 
Heartbeat CPU 0 instructions: 20000001 cycles: 5000172 heartbeat IPC: 3.99994 cumulative IPC: 3.99987 (Simulation time: 0 hr 1 min 19 sec) 
Heartbeat CPU 0 instructions: 30000001 cycles: 7500260 heartbeat IPC: 3.99986 cumulative IPC: 3.99987 (Simulation time: 0 hr 2 min 0 sec) 
Heartbeat CPU 0 instructions: 40000000 cycles: 10000295 heartbeat IPC: 3.99995 cumulative IPC: 3.99989 (Simulation time: 0 hr 2 min 41 sec) 
Heartbeat CPU 0 instructions: 50000003 cycles: 12500346 heartbeat IPC: 3.99992 cumulative IPC: 3.99989 (Simulation time: 0 hr 3 min 23 sec) 
Warmup finished CPU 0 instructions: 50000003 cycles: 12500347 cumulative IPC: 3.99989 (Simulation time: 0 hr 3 min 23 sec) 

Warmup complete CPU 0 instructions: 50000003 cycles: 12500347 (Simulation time: 0 hr 3 min 23 sec) 

Heartbeat CPU 0 instructions: 60000001 cycles: 26923725 heartbeat IPC: 0.693319 cumulative IPC: 0.693319 (Simulation time: 0 hr 4 min 27 sec) 
Heartbeat CPU 0 instructions: 70000000 cycles: 40403290 heartbeat IPC: 0.741864 cumulative IPC: 0.716771 (Simulation time: 0 hr 5 min 30 sec) 
Heartbeat CPU 0 instructions: 80000001 cycles: 54692303 heartbeat IPC: 0.699839 cumulative IPC: 0.711036 (Simulation time: 0 hr 6 min 33 sec) 
Heartbeat CPU 0 instructions: 90000001 cycles: 69446320 heartbeat IPC: 0.677782 cumulative IPC: 0.702421 (Simulation time: 0 hr 7 min 38 sec) 
Heartbeat CPU 0 instructions: 100000004 cycles: 83809841 heartbeat IPC: 0.696209 cumulative IPC: 0.701169 (Simulation time: 0 hr 8 min 41 sec) 
*** Reached end of trace: /gpfs/projects/bsc18/MN4/bsc18/romol/ChampSim/traces/qualcomm_srv/srv606_ap.champsimtrace.xz
Heartbeat CPU 0 instructions: 110000001 cycles: 97389050 heartbeat IPC: 0.73642 cumulative IPC: 0.706808 (Simulation time: 0 hr 9 min 45 sec) 
Heartbeat CPU 0 instructions: 120000001 cycles: 111789171 heartbeat IPC: 0.694439 cumulative IPC: 0.705014 (Simulation time: 0 hr 10 min 50 sec) 
Heartbeat CPU 0 instructions: 130000003 cycles: 126153035 heartbeat IPC: 0.696192 cumulative IPC: 0.703899 (Simulation time: 0 hr 11 min 54 sec) 
Heartbeat CPU 0 instructions: 140000000 cycles: 139632922 heartbeat IPC: 0.741846 cumulative IPC: 0.707923 (Simulation time: 0 hr 12 min 56 sec) 
Heartbeat CPU 0 instructions: 150000003 cycles: 155127452 heartbeat IPC: 0.64539 cumulative IPC: 0.70113 (Simulation time: 0 hr 14 min 2 sec) 
Simulation finished CPU 0 instructions: 100000000 cycles: 142627106 cumulative IPC: 0.701129 (Simulation time: 0 hr 14 min 2 sec) 

Simulation complete CPU 0 instructions: 100000000 cycles: 142627106 (Simulation time: 0 hr 14 min 2 sec) 


ChampSim completed all CPUs

Saving instructions large page distribution to /home/bsc/bsc018186/scratch/itp_asplos25_AE/dump/srv606_ap.pdst...
Saving data large page distribution to /home/bsc/bsc018186/scratch/itp_asplos25_AE/dump/srv606_ap.pdst...
=== Simulation ===
CPU 0 runs /gpfs/projects/bsc18/MN4/bsc18/romol/ChampSim/traces/qualcomm_srv/srv606_ap.champsimtrace.xz

Region of Interest Statistics

CPU 0 cumulative IPC: 0.701129 instructions: 100000000 cycles: 142627106
CPU 0 Branch Prediction Accuracy: 83.5483% MPKI: 29.4216 Average ROB Occupancy at Mispredict: 12.3455
Branch type MPKI
BRANCH_DIRECT_JUMP: 1.00797
BRANCH_INDIRECT: 15.1839
BRANCH_CONDITIONAL: 9.58322
BRANCH_DIRECT_CALL: 1.81744
BRANCH_INDIRECT_CALL: 0.508531
BRANCH_RETURN: 1.32054

Instructions large pages: 0
Instructions small pages: 1024
Large page distribution for instructions: 0%

Data large pages: 0
Data small pages: 9928
Large page distribution for data: 0%

cpu0_L1I TOTAL       ACCESS:   35277681  HIT:   26814293  MISS:    8463388  iACCESS:   35277681  iHIT:   26814293  iMISS:    8463388  dACCESS:          0  dHIT:          0  dMISS:          0  itACCESS:          0  itHIT:          0  itMISS:          0  dtACCESS:          0  dtHIT:          0  dtMISS:          0
cpu0_L1I LOAD         ACCESS:   10355492  HIT:    7980254  MISS:    2375238  iACCESS:   10355492  iHIT:    7980254  iMISS:    2375238  dACCESS:          0  dHIT:          0  dMISS:          0  itACCESS:          0  itHIT:          0  itMISS:          0  dtACCESS:          0  dtHIT:          0  dtMISS:          0
cpu0_L1I RFO          ACCESS:          0  HIT:          0  MISS:          0  iACCESS:          0  iHIT:          0  iMISS:          0  dACCESS:          0  dHIT:          0  dMISS:          0  itACCESS:          0  itHIT:          0  itMISS:          0  dtACCESS:          0  dtHIT:          0  dtMISS:          0
cpu0_L1I PREFETCH     ACCESS:   24922189  HIT:   18834039  MISS:    6088150  iACCESS:   24922189  iHIT:   18834039  iMISS:    6088150  dACCESS:          0  dHIT:          0  dMISS:          0  itACCESS:          0  itHIT:          0  itMISS:          0  dtACCESS:          0  dtHIT:          0  dtMISS:          0
cpu0_L1I WRITE        ACCESS:          0  HIT:          0  MISS:          0  iACCESS:          0  iHIT:          0  iMISS:          0  dACCESS:          0  dHIT:          0  dMISS:          0  itACCESS:          0  itHIT:          0  itMISS:          0  dtACCESS:          0  dtHIT:          0  dtMISS:          0
cpu0_L1I TRANSLATION  ACCESS:          0  HIT:          0  MISS:          0  iACCESS:          0  iHIT:          0  iMISS:          0  dACCESS:          0  dHIT:          0  dMISS:          0  itACCESS:          0  itHIT:          0  itMISS:          0  dtACCESS:          0  dtHIT:          0  dtMISS:          0
cpu0_L1I PREFETCH  REQUESTED:   27241034  ISSUED:   27239687  CROSSED:          0  USEFUL:    1896898  USELESS:     627056
cpu0_L1I AVERAGE iMISS LATENCY: 14.3183 cycles
cpu0_L1I AVERAGE dMISS LATENCY: 0 cycles
cpu0_L1I AVERAGE itMISS LATENCY: 0 cycles
cpu0_L1I AVERAGE dtMISS LATENCY: 0 cycles
cpu0_L1I PAGE CROSSINGS (TLB HIT):         0 
cpu0_L1I PAGE CROSSINGS (TLB MISS):         0 
cpu0_L1I AVERAGE MISS LATENCY: 14.3183 cycles
cpu0_ITLB TOTAL       ACCESS:   29121223  HIT:   27153044  MISS:    1968179  iACCESS:   29121223  iHIT:   27153044  iMISS:    1968179  dACCESS:          0  dHIT:          0  dMISS:          0  itACCESS:          0  itHIT:          0  itMISS:          0  dtACCESS:          0  dtHIT:          0  dtMISS:          0
cpu0_ITLB LOAD         ACCESS:   29121223  HIT:   27153044  MISS:    1968179  iACCESS:   29121223  iHIT:   27153044  iMISS:    1968179  dACCESS:          0  dHIT:          0  dMISS:          0  itACCESS:          0  itHIT:          0  itMISS:          0  dtACCESS:          0  dtHIT:          0  dtMISS:          0
cpu0_ITLB RFO          ACCESS:          0  HIT:          0  MISS:          0  iACCESS:          0  iHIT:          0  iMISS:          0  dACCESS:          0  dHIT:          0  dMISS:          0  itACCESS:          0  itHIT:          0  itMISS:          0  dtACCESS:          0  dtHIT:          0  dtMISS:          0
cpu0_ITLB PREFETCH     ACCESS:          0  HIT:          0  MISS:          0  iACCESS:          0  iHIT:          0  iMISS:          0  dACCESS:          0  dHIT:          0  dMISS:          0  itACCESS:          0  itHIT:          0  itMISS:          0  dtACCESS:          0  dtHIT:          0  dtMISS:          0
cpu0_ITLB WRITE        ACCESS:          0  HIT:          0  MISS:          0  iACCESS:          0  iHIT:          0  iMISS:          0  dACCESS:          0  dHIT:          0  dMISS:          0  itACCESS:          0  itHIT:          0  itMISS:          0  dtACCESS:          0  dtHIT:          0  dtMISS:          0
cpu0_ITLB TRANSLATION  ACCESS:          0  HIT:          0  MISS:          0  iACCESS:          0  iHIT:          0  iMISS:          0  dACCESS:          0  dHIT:          0  dMISS:          0  itACCESS:          0  itHIT:          0  itMISS:          0  dtACCESS:          0  dtHIT:          0  dtMISS:          0
cpu0_ITLB PREFETCH  REQUESTED:          0  ISSUED:          0  CROSSED:          0  USEFUL:     321301  USELESS:      66584
cpu0_ITLB AVERAGE iMISS LATENCY: 2.73807 cycles
cpu0_ITLB AVERAGE dMISS LATENCY: 0 cycles
cpu0_ITLB AVERAGE itMISS LATENCY: 0 cycles
cpu0_ITLB AVERAGE dtMISS LATENCY: 0 cycles
cpu0_ITLB PAGE CROSSINGS (TLB HIT):         0 
cpu0_ITLB PAGE CROSSINGS (TLB MISS):         0 
cpu0_ITLB AVERAGE MISS LATENCY: 2.73807 cycles
cpu0_DTLB TOTAL       ACCESS:   27686079  HIT:   25662365  MISS:    2023714  iACCESS:          0  iHIT:          0  iMISS:          0  dACCESS:   27686079  dHIT:   25662365  dMISS:    2023714  itACCESS:          0  itHIT:          0  itMISS:          0  dtACCESS:          0  dtHIT:          0  dtMISS:          0
cpu0_DTLB LOAD         ACCESS:   27686079  HIT:   25662365  MISS:    2023714  iACCESS:          0  iHIT:          0  iMISS:          0  dACCESS:   27686079  dHIT:   25662365  dMISS:    2023714  itACCESS:          0  itHIT:          0  itMISS:          0  dtACCESS:          0  dtHIT:          0  dtMISS:          0
cpu0_DTLB RFO          ACCESS:          0  HIT:          0  MISS:          0  iACCESS:          0  iHIT:          0  iMISS:          0  dACCESS:          0  dHIT:          0  dMISS:          0  itACCESS:          0  itHIT:          0  itMISS:          0  dtACCESS:          0  dtHIT:          0  dtMISS:          0
cpu0_DTLB PREFETCH     ACCESS:          0  HIT:          0  MISS:          0  iACCESS:          0  iHIT:          0  iMISS:          0  dACCESS:          0  dHIT:          0  dMISS:          0  itACCESS:          0  itHIT:          0  itMISS:          0  dtACCESS:          0  dtHIT:          0  dtMISS:          0
cpu0_DTLB WRITE        ACCESS:          0  HIT:          0  MISS:          0  iACCESS:          0  iHIT:          0  iMISS:          0  dACCESS:          0  dHIT:          0  dMISS:          0  itACCESS:          0  itHIT:          0  itMISS:          0  dtACCESS:          0  dtHIT:          0  dtMISS:          0
cpu0_DTLB TRANSLATION  ACCESS:          0  HIT:          0  MISS:          0  iACCESS:          0  iHIT:          0  iMISS:          0  dACCESS:          0  dHIT:          0  dMISS:          0  itACCESS:          0  itHIT:          0  itMISS:          0  dtACCESS:          0  dtHIT:          0  dtMISS:          0
cpu0_DTLB PREFETCH  REQUESTED:          0  ISSUED:          0  CROSSED:          0  USEFUL:          0  USELESS:          0
cpu0_DTLB AVERAGE iMISS LATENCY: 0 cycles
cpu0_DTLB AVERAGE dMISS LATENCY: 8.84557 cycles
cpu0_DTLB AVERAGE itMISS LATENCY: 0 cycles
cpu0_DTLB AVERAGE dtMISS LATENCY: 0 cycles
cpu0_DTLB PAGE CROSSINGS (TLB HIT):         0 
cpu0_DTLB PAGE CROSSINGS (TLB MISS):         0 
cpu0_DTLB AVERAGE MISS LATENCY: 8.84557 cycles
cpu0_STLB TOTAL       ACCESS:    1631984  HIT:    1461689  MISS:     170295  iACCESS:     387922  iHIT:     326132  iMISS:      61790  dACCESS:    1244062  dHIT:    1135557  dMISS:     108505  itACCESS:          0  itHIT:          0  itMISS:          0  dtACCESS:          0  dtHIT:          0  dtMISS:          0
cpu0_STLB LOAD         ACCESS:    1631984  HIT:    1461689  MISS:     170295  iACCESS:     387922  iHIT:     326132  iMISS:      61790  dACCESS:    1244062  dHIT:    1135557  dMISS:     108505  itACCESS:          0  itHIT:          0  itMISS:          0  dtACCESS:          0  dtHIT:          0  dtMISS:          0
cpu0_STLB RFO          ACCESS:          0  HIT:          0  MISS:          0  iACCESS:          0  iHIT:          0  iMISS:          0  dACCESS:          0  dHIT:          0  dMISS:          0  itACCESS:          0  itHIT:          0  itMISS:          0  dtACCESS:          0  dtHIT:          0  dtMISS:          0
cpu0_STLB PREFETCH     ACCESS:          0  HIT:          0  MISS:          0  iACCESS:          0  iHIT:          0  iMISS:          0  dACCESS:          0  dHIT:          0  dMISS:          0  itACCESS:          0  itHIT:          0  itMISS:          0  dtACCESS:          0  dtHIT:          0  dtMISS:          0
cpu0_STLB WRITE        ACCESS:          0  HIT:          0  MISS:          0  iACCESS:          0  iHIT:          0  iMISS:          0  dACCESS:          0  dHIT:          0  dMISS:          0  itACCESS:          0  itHIT:          0  itMISS:          0  dtACCESS:          0  dtHIT:          0  dtMISS:          0
cpu0_STLB TRANSLATION  ACCESS:          0  HIT:          0  MISS:          0  iACCESS:          0  iHIT:          0  iMISS:          0  dACCESS:          0  dHIT:          0  dMISS:          0  itACCESS:          0  itHIT:          0  itMISS:          0  dtACCESS:          0  dtHIT:          0  dtMISS:          0
cpu0_STLB PREFETCH  REQUESTED:          0  ISSUED:          0  CROSSED:          0  USEFUL:          0  USELESS:          0
cpu0_STLB AVERAGE iMISS LATENCY: 13.6412 cycles
cpu0_STLB AVERAGE dMISS LATENCY: 46.9486 cycles
cpu0_STLB AVERAGE itMISS LATENCY: 0 cycles
cpu0_STLB AVERAGE dtMISS LATENCY: 0 cycles
cpu0_STLB PAGE CROSSINGS (TLB HIT):         0 
cpu0_STLB PAGE CROSSINGS (TLB MISS):         0 
cpu0_STLB AVERAGE MISS LATENCY: 60.5898 cycles
cpu0_L1D TOTAL       ACCESS:   41422048  HIT:   37924923  MISS:    3497125  iACCESS:          0  iHIT:          0  iMISS:          0  dACCESS:   41191191  dHIT:   37904307  dMISS:    3286884  itACCESS:      67304  itHIT:       9421  itMISS:      57883  dtACCESS:     163553  dtHIT:      11195  dtMISS:     152358
cpu0_L1D LOAD         ACCESS:   18872798  HIT:   17385861  MISS:    1486937  iACCESS:          0  iHIT:          0  iMISS:          0  dACCESS:   18872798  dHIT:   17385861  dMISS:    1486937  itACCESS:          0  itHIT:          0  itMISS:          0  dtACCESS:          0  dtHIT:          0  dtMISS:          0
cpu0_L1D RFO          ACCESS:          0  HIT:          0  MISS:          0  iACCESS:          0  iHIT:          0  iMISS:          0  dACCESS:          0  dHIT:          0  dMISS:          0  itACCESS:          0  itHIT:          0  itMISS:          0  dtACCESS:          0  dtHIT:          0  dtMISS:          0
cpu0_L1D PREFETCH     ACCESS:   12123416  HIT:   10766682  MISS:    1356734  iACCESS:          0  iHIT:          0  iMISS:          0  dACCESS:   12123416  dHIT:   10766682  dMISS:    1356734  itACCESS:          0  itHIT:          0  itMISS:          0  dtACCESS:          0  dtHIT:          0  dtMISS:          0
cpu0_L1D WRITE        ACCESS:   10194977  HIT:    9751764  MISS:     443213  iACCESS:          0  iHIT:          0  iMISS:          0  dACCESS:   10194977  dHIT:    9751764  dMISS:     443213  itACCESS:          0  itHIT:          0  itMISS:          0  dtACCESS:          0  dtHIT:          0  dtMISS:          0
cpu0_L1D TRANSLATION  ACCESS:     230857  HIT:      20616  MISS:     210241  iACCESS:          0  iHIT:          0  iMISS:          0  dACCESS:          0  dHIT:          0  dMISS:          0  itACCESS:      67304  itHIT:       9421  itMISS:      57883  dtACCESS:     163553  dtHIT:      11195  dtMISS:     152358
cpu0_L1D PREFETCH  REQUESTED:   18872798  ISSUED:   16916205  CROSSED:          0  USEFUL:     304367  USELESS:     697990
cpu0_L1D AVERAGE iMISS LATENCY: 0 cycles
cpu0_L1D AVERAGE dMISS LATENCY: 36.5719 cycles
cpu0_L1D AVERAGE itMISS LATENCY: 0.512037 cycles
cpu0_L1D AVERAGE dtMISS LATENCY: 1.59641 cycles
cpu0_L1D PAGE CROSSINGS (TLB HIT):         0 
cpu0_L1D PAGE CROSSINGS (TLB MISS):         0 
cpu0_L1D AVERAGE MISS LATENCY: 38.6803 cycles
cpu0_L2C TOTAL       ACCESS:    6921724  HIT:    1213065  MISS:    5708659  iACCESS:    3278230  iHIT:     670050  iMISS:    2608180  dACCESS:    3441371  dHIT:     376397  dMISS:    3064974  itACCESS:      57883  itHIT:      48142  itMISS:       9741  dtACCESS:     144240  dtHIT:     118476  dtMISS:      25764
cpu0_L2C LOAD         ACCESS:    1714043  HIT:     130812  MISS:    1583231  iACCESS:     787698  iHIT:      92716  iMISS:     694982  dACCESS:     926345  dHIT:      38096  dMISS:     888249  itACCESS:          0  itHIT:          0  itMISS:          0  dtACCESS:          0  dtHIT:          0  dtMISS:          0
cpu0_L2C RFO          ACCESS:     157665  HIT:       9036  MISS:     148629  iACCESS:          0  iHIT:          0  iMISS:          0  dACCESS:     157665  dHIT:       9036  dMISS:     148629  itACCESS:          0  itHIT:          0  itMISS:          0  dtACCESS:          0  dtHIT:          0  dtMISS:          0
cpu0_L2C PREFETCH     ACCESS:    4564579  HIT:     849598  MISS:    3714981  iACCESS:    2490532  iHIT:     577334  iMISS:    1913198  dACCESS:    2074047  dHIT:     272264  dMISS:    1801783  itACCESS:          0  itHIT:          0  itMISS:          0  dtACCESS:          0  dtHIT:          0  dtMISS:          0
cpu0_L2C WRITE        ACCESS:     283314  HIT:      57001  MISS:     226313  iACCESS:          0  iHIT:          0  iMISS:          0  dACCESS:     283314  dHIT:      57001  dMISS:     226313  itACCESS:          0  itHIT:          0  itMISS:          0  dtACCESS:          0  dtHIT:          0  dtMISS:          0
cpu0_L2C TRANSLATION  ACCESS:     202123  HIT:     166618  MISS:      35505  iACCESS:          0  iHIT:          0  iMISS:          0  dACCESS:          0  dHIT:          0  dMISS:          0  itACCESS:      57883  itHIT:      48142  itMISS:       9741  dtACCESS:     144240  dtHIT:     118476  dtMISS:      25764
cpu0_L2C PREFETCH  REQUESTED:    1319237  ISSUED:    1319237  CROSSED:          0  USEFUL:     401456  USELESS:     375500
cpu0_L2C AVERAGE iMISS LATENCY: 15.9763 cycles
cpu0_L2C AVERAGE dMISS LATENCY: 26.0399 cycles
cpu0_L2C AVERAGE itMISS LATENCY: 0.22051 cycles
cpu0_L2C AVERAGE dtMISS LATENCY: 0.744693 cycles
cpu0_L2C PAGE CROSSINGS (TLB HIT):         0 
cpu0_L2C PAGE CROSSINGS (TLB MISS):         0 
cpu0_L2C AVERAGE MISS LATENCY: 42.9813 cycles
LLC TOTAL       ACCESS:    5625769  HIT:    4724420  MISS:     901349  iACCESS:    2552783  iHIT:    2264697  iMISS:     288086  dACCESS:    3037481  dHIT:    2451689  dMISS:     585792  itACCESS:       9741  itHIT:       3580  itMISS:       6161  dtACCESS:      25764  dtHIT:       4454  dtMISS:      21310
LLC LOAD         ACCESS:    1581309  HIT:    1367256  MISS:     214053  iACCESS:     693402  iHIT:     632346  iMISS:      61056  dACCESS:     887907  dHIT:     734910  dMISS:     152997  itACCESS:          0  itHIT:          0  itMISS:          0  dtACCESS:          0  dtHIT:          0  dtMISS:          0
LLC RFO          ACCESS:     148612  HIT:     108233  MISS:      40379  iACCESS:          0  iHIT:          0  iMISS:          0  dACCESS:     148612  dHIT:     108233  dMISS:      40379  itACCESS:          0  itHIT:          0  itMISS:          0  dtACCESS:          0  dtHIT:          0  dtMISS:          0
LLC PREFETCH     ACCESS:    3603138  HIT:    2983692  MISS:     619446  iACCESS:    1859381  iHIT:    1632351  iMISS:     227030  dACCESS:    1743757  dHIT:    1351341  dMISS:     392416  itACCESS:          0  itHIT:          0  itMISS:          0  dtACCESS:          0  dtHIT:          0  dtMISS:          0
LLC WRITE        ACCESS:     257205  HIT:     257205  MISS:          0  iACCESS:          0  iHIT:          0  iMISS:          0  dACCESS:     257205  dHIT:     257205  dMISS:          0  itACCESS:          0  itHIT:          0  itMISS:          0  dtACCESS:          0  dtHIT:          0  dtMISS:          0
LLC TRANSLATION  ACCESS:      35505  HIT:       8034  MISS:      27471  iACCESS:          0  iHIT:          0  iMISS:          0  dACCESS:          0  dHIT:          0  dMISS:          0  itACCESS:       9741  itHIT:       3580  itMISS:       6161  dtACCESS:      25764  dtHIT:       4454  dtMISS:      21310
LLC PREFETCH  REQUESTED:          0  ISSUED:          0  CROSSED:          0  USEFUL:          0  USELESS:          0
LLC AVERAGE iMISS LATENCY: 46.4902 cycles
LLC AVERAGE dMISS LATENCY: 105.547 cycles
LLC AVERAGE itMISS LATENCY: 1.18478 cycles
LLC AVERAGE dtMISS LATENCY: 4.15262 cycles
LLC PAGE CROSSINGS (TLB HIT):         0 
LLC PAGE CROSSINGS (TLB MISS):         0 
LLC AVERAGE MISS LATENCY: 157.374 cycles

PageTableWalker TOTAL       ACCESS:      87965  
PageTableWalker AVERAGE LATENCY: 4.1719 cycles
PageTableWalker TOTAL LATENCY: 366981 cycles

DRAM Statistics
Channel 0
 RQ ROW_BUFFER_HIT:     268846
  ROW_BUFFER_MISS:     632416
 AVG DBUS CONGESTED CYCLE:    3.62795
 WQ ROW_BUFFER_HIT:      24286
  ROW_BUFFER_MISS:      29964  FULL:          0

