last_page:0x200000000000000
VMEM_RES_CAP:0x100000
PAGE_SIZE:4096
LOG2_PAGE_SIZE:12
LOG2_PAGE_TABLE_SIZE:9
page_table_levels:5
WARNING: physical memory size is smaller than virtual memory size
FDiP enabled with aggresivity 16

*** ChampSim Multicore Out-of-Order Simulator ***

Warmup Instructions: 50000000
Simulation Instructions: 100000000
Number of CPUs: 1
Small page size: 4096
Large page size: 2097152

CPU 0 Bimodal branch predictor
Basic BTB sets: 1024 ways: 8 indirect buffer size: 4096 RAS size: 64
Instruction page size distrubution: 0
Loading instruction page size distribution from /home/bsc/bsc018186/scratch/itp_asplos25_AE/dump/srv669_ap.pdst
Data page size distrubution: 0
Loading data page size distribution from /home/bsc/bsc018186/scratch/itp_asplos25_AE/dump/srv669_ap.pdst
cpu0_L2C IP-based stride prefetcher
cpu0_L2C is using PTP replacement policy:
	TLB_STRESS_THRESHOLD:0
	PTE_EVICTION_RATIO:0
cpu0_L1D next line prefetcher
cpu0_L1I next line prefetcher
Off-chip DRAM Size: 4 GiB Channels: 1 Width: 64-bit Data Rate: 3200 MT/s
Heartbeat CPU 0 instructions: 10000004 cycles: 2911181 heartbeat IPC: 3.43504 cumulative IPC: 3.43504 (Simulation time: 0 hr 0 min 38 sec) 
Heartbeat CPU 0 instructions: 20000000 cycles: 5592693 heartbeat IPC: 3.72924 cumulative IPC: 3.5761 (Simulation time: 0 hr 1 min 17 sec) 
Heartbeat CPU 0 instructions: 30000003 cycles: 8092826 heartbeat IPC: 3.99979 cumulative IPC: 3.70699 (Simulation time: 0 hr 1 min 58 sec) 
Heartbeat CPU 0 instructions: 40000003 cycles: 10592922 heartbeat IPC: 3.99985 cumulative IPC: 3.77611 (Simulation time: 0 hr 2 min 39 sec) 
Heartbeat CPU 0 instructions: 50000000 cycles: 13093061 heartbeat IPC: 3.99978 cumulative IPC: 3.81882 (Simulation time: 0 hr 3 min 19 sec) 
Warmup finished CPU 0 instructions: 50000000 cycles: 13093062 cumulative IPC: 3.81882 (Simulation time: 0 hr 3 min 19 sec) 

Warmup complete CPU 0 instructions: 50000000 cycles: 13093062 (Simulation time: 0 hr 3 min 19 sec) 

Heartbeat CPU 0 instructions: 60000000 cycles: 34025787 heartbeat IPC: 0.477721 cumulative IPC: 0.477721 (Simulation time: 0 hr 4 min 32 sec) 
Heartbeat CPU 0 instructions: 70000003 cycles: 54826897 heartbeat IPC: 0.480744 cumulative IPC: 0.479228 (Simulation time: 0 hr 5 min 45 sec) 
Heartbeat CPU 0 instructions: 80000004 cycles: 76020959 heartbeat IPC: 0.471831 cumulative IPC: 0.476737 (Simulation time: 0 hr 6 min 59 sec) 
Heartbeat CPU 0 instructions: 90000001 cycles: 96925513 heartbeat IPC: 0.478365 cumulative IPC: 0.477143 (Simulation time: 0 hr 8 min 12 sec) 
Heartbeat CPU 0 instructions: 100000000 cycles: 117959253 heartbeat IPC: 0.475427 cumulative IPC: 0.476799 (Simulation time: 0 hr 9 min 25 sec) 
*** Reached end of trace: /gpfs/projects/bsc18/MN4/bsc18/romol/ChampSim/traces/qualcomm_srv/srv669_ap.champsimtrace.xz
Heartbeat CPU 0 instructions: 110000002 cycles: 132730404 heartbeat IPC: 0.676996 cumulative IPC: 0.501516 (Simulation time: 0 hr 10 min 31 sec) 
Heartbeat CPU 0 instructions: 120000004 cycles: 143584188 heartbeat IPC: 0.921338 cumulative IPC: 0.536435 (Simulation time: 0 hr 11 min 33 sec) 
Heartbeat CPU 0 instructions: 130000002 cycles: 165447565 heartbeat IPC: 0.457386 cumulative IPC: 0.525092 (Simulation time: 0 hr 12 min 47 sec) 
Heartbeat CPU 0 instructions: 140000000 cycles: 186839511 heartbeat IPC: 0.467466 cumulative IPC: 0.517997 (Simulation time: 0 hr 14 min 1 sec) 
Heartbeat CPU 0 instructions: 150000001 cycles: 208092138 heartbeat IPC: 0.470531 cumulative IPC: 0.512823 (Simulation time: 0 hr 15 min 14 sec) 
Simulation finished CPU 0 instructions: 100000001 cycles: 194999077 cumulative IPC: 0.512823 (Simulation time: 0 hr 15 min 14 sec) 

Simulation complete CPU 0 instructions: 100000001 cycles: 194999077 (Simulation time: 0 hr 15 min 14 sec) 


ChampSim completed all CPUs

Saving instructions large page distribution to /home/bsc/bsc018186/scratch/itp_asplos25_AE/dump/srv669_ap.pdst...
Saving data large page distribution to /home/bsc/bsc018186/scratch/itp_asplos25_AE/dump/srv669_ap.pdst...
=== Simulation ===
CPU 0 runs /gpfs/projects/bsc18/MN4/bsc18/romol/ChampSim/traces/qualcomm_srv/srv669_ap.champsimtrace.xz

Region of Interest Statistics

CPU 0 cumulative IPC: 0.512823 instructions: 100000001 cycles: 194999077
CPU 0 Branch Prediction Accuracy: 82.4556% MPKI: 34.0984 Average ROB Occupancy at Mispredict: 11.8804
Branch type MPKI
BRANCH_DIRECT_JUMP: 1.26123
BRANCH_INDIRECT: 17.3427
BRANCH_CONDITIONAL: 10.7825
BRANCH_DIRECT_CALL: 2.39194
BRANCH_INDIRECT_CALL: 0.68075
BRANCH_RETURN: 1.63937

Instructions large pages: 0
Instructions small pages: 1178
Large page distribution for instructions: 0%

Data large pages: 0
Data small pages: 5539
Large page distribution for data: 0%

cpu0_L1I TOTAL       ACCESS:   35502956  HIT:   28157046  MISS:    7345910  iACCESS:   35502956  iHIT:   28157046  iMISS:    7345910  dACCESS:          0  dHIT:          0  dMISS:          0  itACCESS:          0  itHIT:          0  itMISS:          0  dtACCESS:          0  dtHIT:          0  dtMISS:          0
cpu0_L1I LOAD         ACCESS:    9560026  HIT:    7545391  MISS:    2014635  iACCESS:    9560026  iHIT:    7545391  iMISS:    2014635  dACCESS:          0  dHIT:          0  dMISS:          0  itACCESS:          0  itHIT:          0  itMISS:          0  dtACCESS:          0  dtHIT:          0  dtMISS:          0
cpu0_L1I RFO          ACCESS:          0  HIT:          0  MISS:          0  iACCESS:          0  iHIT:          0  iMISS:          0  dACCESS:          0  dHIT:          0  dMISS:          0  itACCESS:          0  itHIT:          0  itMISS:          0  dtACCESS:          0  dtHIT:          0  dtMISS:          0
cpu0_L1I PREFETCH     ACCESS:   25942930  HIT:   20611655  MISS:    5331275  iACCESS:   25942930  iHIT:   20611655  iMISS:    5331275  dACCESS:          0  dHIT:          0  dMISS:          0  itACCESS:          0  itHIT:          0  itMISS:          0  dtACCESS:          0  dtHIT:          0  dtMISS:          0
cpu0_L1I WRITE        ACCESS:          0  HIT:          0  MISS:          0  iACCESS:          0  iHIT:          0  iMISS:          0  dACCESS:          0  dHIT:          0  dMISS:          0  itACCESS:          0  itHIT:          0  itMISS:          0  dtACCESS:          0  dtHIT:          0  dtMISS:          0
cpu0_L1I TRANSLATION  ACCESS:          0  HIT:          0  MISS:          0  iACCESS:          0  iHIT:          0  iMISS:          0  dACCESS:          0  dHIT:          0  dMISS:          0  itACCESS:          0  itHIT:          0  itMISS:          0  dtACCESS:          0  dtHIT:          0  dtMISS:          0
cpu0_L1I PREFETCH  REQUESTED:   28153811  ISSUED:   28153520  CROSSED:          0  USEFUL:    1808263  USELESS:     598043
cpu0_L1I AVERAGE iMISS LATENCY: 21.1552 cycles
cpu0_L1I AVERAGE dMISS LATENCY: 0 cycles
cpu0_L1I AVERAGE itMISS LATENCY: 0 cycles
cpu0_L1I AVERAGE dtMISS LATENCY: 0 cycles
cpu0_L1I PAGE CROSSINGS (TLB HIT):         0 
cpu0_L1I PAGE CROSSINGS (TLB MISS):         0 
cpu0_L1I AVERAGE MISS LATENCY: 21.1552 cycles
cpu0_ITLB TOTAL       ACCESS:   29842713  HIT:   28102919  MISS:    1739794  iACCESS:   29842713  iHIT:   28102919  iMISS:    1739794  dACCESS:          0  dHIT:          0  dMISS:          0  itACCESS:          0  itHIT:          0  itMISS:          0  dtACCESS:          0  dtHIT:          0  dtMISS:          0
cpu0_ITLB LOAD         ACCESS:   29842713  HIT:   28102919  MISS:    1739794  iACCESS:   29842713  iHIT:   28102919  iMISS:    1739794  dACCESS:          0  dHIT:          0  dMISS:          0  itACCESS:          0  itHIT:          0  itMISS:          0  dtACCESS:          0  dtHIT:          0  dtMISS:          0
cpu0_ITLB RFO          ACCESS:          0  HIT:          0  MISS:          0  iACCESS:          0  iHIT:          0  iMISS:          0  dACCESS:          0  dHIT:          0  dMISS:          0  itACCESS:          0  itHIT:          0  itMISS:          0  dtACCESS:          0  dtHIT:          0  dtMISS:          0
cpu0_ITLB PREFETCH     ACCESS:          0  HIT:          0  MISS:          0  iACCESS:          0  iHIT:          0  iMISS:          0  dACCESS:          0  dHIT:          0  dMISS:          0  itACCESS:          0  itHIT:          0  itMISS:          0  dtACCESS:          0  dtHIT:          0  dtMISS:          0
cpu0_ITLB WRITE        ACCESS:          0  HIT:          0  MISS:          0  iACCESS:          0  iHIT:          0  iMISS:          0  dACCESS:          0  dHIT:          0  dMISS:          0  itACCESS:          0  itHIT:          0  itMISS:          0  dtACCESS:          0  dtHIT:          0  dtMISS:          0
cpu0_ITLB TRANSLATION  ACCESS:          0  HIT:          0  MISS:          0  iACCESS:          0  iHIT:          0  iMISS:          0  dACCESS:          0  dHIT:          0  dMISS:          0  itACCESS:          0  itHIT:          0  itMISS:          0  dtACCESS:          0  dtHIT:          0  dtMISS:          0
cpu0_ITLB PREFETCH  REQUESTED:          0  ISSUED:          0  CROSSED:          0  USEFUL:     297867  USELESS:      59695
cpu0_ITLB AVERAGE iMISS LATENCY: 6.47927 cycles
cpu0_ITLB AVERAGE dMISS LATENCY: 0 cycles
cpu0_ITLB AVERAGE itMISS LATENCY: 0 cycles
cpu0_ITLB AVERAGE dtMISS LATENCY: 0 cycles
cpu0_ITLB PAGE CROSSINGS (TLB HIT):         0 
cpu0_ITLB PAGE CROSSINGS (TLB MISS):         0 
cpu0_ITLB AVERAGE MISS LATENCY: 6.47927 cycles
cpu0_DTLB TOTAL       ACCESS:   29985506  HIT:   25819983  MISS:    4165523  iACCESS:          0  iHIT:          0  iMISS:          0  dACCESS:   29985506  dHIT:   25819983  dMISS:    4165523  itACCESS:          0  itHIT:          0  itMISS:          0  dtACCESS:          0  dtHIT:          0  dtMISS:          0
cpu0_DTLB LOAD         ACCESS:   29985506  HIT:   25819983  MISS:    4165523  iACCESS:          0  iHIT:          0  iMISS:          0  dACCESS:   29985506  dHIT:   25819983  dMISS:    4165523  itACCESS:          0  itHIT:          0  itMISS:          0  dtACCESS:          0  dtHIT:          0  dtMISS:          0
cpu0_DTLB RFO          ACCESS:          0  HIT:          0  MISS:          0  iACCESS:          0  iHIT:          0  iMISS:          0  dACCESS:          0  dHIT:          0  dMISS:          0  itACCESS:          0  itHIT:          0  itMISS:          0  dtACCESS:          0  dtHIT:          0  dtMISS:          0
cpu0_DTLB PREFETCH     ACCESS:          0  HIT:          0  MISS:          0  iACCESS:          0  iHIT:          0  iMISS:          0  dACCESS:          0  dHIT:          0  dMISS:          0  itACCESS:          0  itHIT:          0  itMISS:          0  dtACCESS:          0  dtHIT:          0  dtMISS:          0
cpu0_DTLB WRITE        ACCESS:          0  HIT:          0  MISS:          0  iACCESS:          0  iHIT:          0  iMISS:          0  dACCESS:          0  dHIT:          0  dMISS:          0  itACCESS:          0  itHIT:          0  itMISS:          0  dtACCESS:          0  dtHIT:          0  dtMISS:          0
cpu0_DTLB TRANSLATION  ACCESS:          0  HIT:          0  MISS:          0  iACCESS:          0  iHIT:          0  iMISS:          0  dACCESS:          0  dHIT:          0  dMISS:          0  itACCESS:          0  itHIT:          0  itMISS:          0  dtACCESS:          0  dtHIT:          0  dtMISS:          0
cpu0_DTLB PREFETCH  REQUESTED:          0  ISSUED:          0  CROSSED:          0  USEFUL:          0  USELESS:          0
cpu0_DTLB AVERAGE iMISS LATENCY: 0 cycles
cpu0_DTLB AVERAGE dMISS LATENCY: 9.25184 cycles
cpu0_DTLB AVERAGE itMISS LATENCY: 0 cycles
cpu0_DTLB AVERAGE dtMISS LATENCY: 0 cycles
cpu0_DTLB PAGE CROSSINGS (TLB HIT):         0 
cpu0_DTLB PAGE CROSSINGS (TLB MISS):         0 
cpu0_DTLB AVERAGE MISS LATENCY: 9.25184 cycles
cpu0_STLB TOTAL       ACCESS:    2584229  HIT:    2367049  MISS:     217180  iACCESS:     357565  iHIT:     273541  iMISS:      84024  dACCESS:    2226664  dHIT:    2093508  dMISS:     133156  itACCESS:          0  itHIT:          0  itMISS:          0  dtACCESS:          0  dtHIT:          0  dtMISS:          0
cpu0_STLB LOAD         ACCESS:    2584229  HIT:    2367049  MISS:     217180  iACCESS:     357565  iHIT:     273541  iMISS:      84024  dACCESS:    2226664  dHIT:    2093508  dMISS:     133156  itACCESS:          0  itHIT:          0  itMISS:          0  dtACCESS:          0  dtHIT:          0  dtMISS:          0
cpu0_STLB RFO          ACCESS:          0  HIT:          0  MISS:          0  iACCESS:          0  iHIT:          0  iMISS:          0  dACCESS:          0  dHIT:          0  dMISS:          0  itACCESS:          0  itHIT:          0  itMISS:          0  dtACCESS:          0  dtHIT:          0  dtMISS:          0
cpu0_STLB PREFETCH     ACCESS:          0  HIT:          0  MISS:          0  iACCESS:          0  iHIT:          0  iMISS:          0  dACCESS:          0  dHIT:          0  dMISS:          0  itACCESS:          0  itHIT:          0  itMISS:          0  dtACCESS:          0  dtHIT:          0  dtMISS:          0
cpu0_STLB WRITE        ACCESS:          0  HIT:          0  MISS:          0  iACCESS:          0  iHIT:          0  iMISS:          0  dACCESS:          0  dHIT:          0  dMISS:          0  itACCESS:          0  itHIT:          0  itMISS:          0  dtACCESS:          0  dtHIT:          0  dtMISS:          0
cpu0_STLB TRANSLATION  ACCESS:          0  HIT:          0  MISS:          0  iACCESS:          0  iHIT:          0  iMISS:          0  dACCESS:          0  dHIT:          0  dMISS:          0  itACCESS:          0  itHIT:          0  itMISS:          0  dtACCESS:          0  dtHIT:          0  dtMISS:          0
cpu0_STLB PREFETCH  REQUESTED:          0  ISSUED:          0  CROSSED:          0  USEFUL:          0  USELESS:          0
cpu0_STLB AVERAGE iMISS LATENCY: 38.7521 cycles
cpu0_STLB AVERAGE dMISS LATENCY: 94.7037 cycles
cpu0_STLB AVERAGE itMISS LATENCY: 0 cycles
cpu0_STLB AVERAGE dtMISS LATENCY: 0 cycles
cpu0_STLB PAGE CROSSINGS (TLB HIT):         0 
cpu0_STLB PAGE CROSSINGS (TLB MISS):         0 
cpu0_STLB AVERAGE MISS LATENCY: 133.456 cycles
cpu0_L1D TOTAL       ACCESS:   45954298  HIT:   39300964  MISS:    6653334  iACCESS:          0  iHIT:          0  iMISS:          0  dACCESS:   45671301  dHIT:   39278008  dMISS:    6393293  itACCESS:      89916  itHIT:      12266  itMISS:      77650  dtACCESS:     193081  dtHIT:      10690  dtMISS:     182391
cpu0_L1D LOAD         ACCESS:   22015965  HIT:   18361860  MISS:    3654105  iACCESS:          0  iHIT:          0  iMISS:          0  dACCESS:   22015965  dHIT:   18361860  dMISS:    3654105  itACCESS:          0  itHIT:          0  itMISS:          0  dtACCESS:          0  dtHIT:          0  dtMISS:          0
cpu0_L1D RFO          ACCESS:          0  HIT:          0  MISS:          0  iACCESS:          0  iHIT:          0  iMISS:          0  dACCESS:          0  dHIT:          0  dMISS:          0  itACCESS:          0  itHIT:          0  itMISS:          0  dtACCESS:          0  dtHIT:          0  dtMISS:          0
cpu0_L1D PREFETCH     ACCESS:   13773587  HIT:   11463990  MISS:    2309597  iACCESS:          0  iHIT:          0  iMISS:          0  dACCESS:   13773587  dHIT:   11463990  dMISS:    2309597  itACCESS:          0  itHIT:          0  itMISS:          0  dtACCESS:          0  dtHIT:          0  dtMISS:          0
cpu0_L1D WRITE        ACCESS:    9881749  HIT:    9452158  MISS:     429591  iACCESS:          0  iHIT:          0  iMISS:          0  dACCESS:    9881749  dHIT:    9452158  dMISS:     429591  itACCESS:          0  itHIT:          0  itMISS:          0  dtACCESS:          0  dtHIT:          0  dtMISS:          0
cpu0_L1D TRANSLATION  ACCESS:     282997  HIT:      22956  MISS:     260041  iACCESS:          0  iHIT:          0  iMISS:          0  dACCESS:          0  dHIT:          0  dMISS:          0  itACCESS:      89916  itHIT:      12266  itMISS:      77650  dtACCESS:     193081  dtHIT:      10690  dtMISS:     182391
cpu0_L1D PREFETCH  REQUESTED:   22015965  ISSUED:   17644970  CROSSED:          0  USEFUL:     276115  USELESS:     821775
cpu0_L1D AVERAGE iMISS LATENCY: 0 cycles
cpu0_L1D AVERAGE dMISS LATENCY: 29.5582 cycles
cpu0_L1D AVERAGE itMISS LATENCY: 1.15621 cycles
cpu0_L1D AVERAGE dtMISS LATENCY: 2.79087 cycles
cpu0_L1D PAGE CROSSINGS (TLB HIT):         0 
cpu0_L1D PAGE CROSSINGS (TLB MISS):         0 
cpu0_L1D AVERAGE MISS LATENCY: 33.5052 cycles
cpu0_L2C TOTAL       ACCESS:    8356028  HIT:    3390711  MISS:    4965317  iACCESS:    3067072  iHIT:    1219281  iMISS:    1847791  dACCESS:    5043922  dHIT:    2067872  dMISS:    2976050  itACCESS:      77650  itHIT:      34064  itMISS:      43586  dtACCESS:     167384  dtHIT:      69494  dtMISS:      97890
cpu0_L2C LOAD         ACCESS:    3069342  HIT:    1494552  MISS:    1574790  iACCESS:     693014  iHIT:     266328  iMISS:     426686  dACCESS:    2376328  dHIT:    1228224  dMISS:    1148104  itACCESS:          0  itHIT:          0  itMISS:          0  dtACCESS:          0  dtHIT:          0  dtMISS:          0
cpu0_L2C RFO          ACCESS:     168113  HIT:      49588  MISS:     118525  iACCESS:          0  iHIT:          0  iMISS:          0  dACCESS:     168113  dHIT:      49588  dMISS:     118525  itACCESS:          0  itHIT:          0  itMISS:          0  dtACCESS:          0  dtHIT:          0  dtMISS:          0
cpu0_L2C PREFETCH     ACCESS:    4627899  HIT:    1600287  MISS:    3027612  iACCESS:    2374058  iHIT:     952953  iMISS:    1421105  dACCESS:    2253841  dHIT:     647334  dMISS:    1606507  itACCESS:          0  itHIT:          0  itMISS:          0  dtACCESS:          0  dtHIT:          0  dtMISS:          0
cpu0_L2C WRITE        ACCESS:     245640  HIT:     142726  MISS:     102914  iACCESS:          0  iHIT:          0  iMISS:          0  dACCESS:     245640  dHIT:     142726  dMISS:     102914  itACCESS:          0  itHIT:          0  itMISS:          0  dtACCESS:          0  dtHIT:          0  dtMISS:          0
cpu0_L2C TRANSLATION  ACCESS:     245034  HIT:     103558  MISS:     141476  iACCESS:          0  iHIT:          0  iMISS:          0  dACCESS:          0  dHIT:          0  dMISS:          0  itACCESS:      77650  itHIT:      34064  itMISS:      43586  dtACCESS:     167384  dtHIT:      69494  dtMISS:      97890
cpu0_L2C PREFETCH  REQUESTED:    1393169  ISSUED:    1393169  CROSSED:          0  USEFUL:     361483  USELESS:     345612
cpu0_L2C AVERAGE iMISS LATENCY: 25.8503 cycles
cpu0_L2C AVERAGE dMISS LATENCY: 46.003 cycles
cpu0_L2C AVERAGE itMISS LATENCY: 1.39935 cycles
cpu0_L2C AVERAGE dtMISS LATENCY: 3.41499 cycles
cpu0_L2C PAGE CROSSINGS (TLB HIT):         0 
cpu0_L2C PAGE CROSSINGS (TLB MISS):         0 
cpu0_L2C AVERAGE MISS LATENCY: 76.6676 cycles
LLC TOTAL       ACCESS:    4862195  HIT:    3075928  MISS:    1786267  iACCESS:    1771125  iHIT:    1142273  iMISS:     628852  dACCESS:    2949594  dHIT:    1906007  dMISS:    1043587  itACCESS:      43586  itHIT:       9238  itMISS:      34348  dtACCESS:      97890  dtHIT:      18410  dtMISS:      79480
LLC LOAD         ACCESS:    1569422  HIT:    1172533  MISS:     396889  iACCESS:     425575  iHIT:     297616  iMISS:     127959  dACCESS:    1143847  dHIT:     874917  dMISS:     268930  itACCESS:          0  itHIT:          0  itMISS:          0  dtACCESS:          0  dtHIT:          0  dtMISS:          0
LLC RFO          ACCESS:     118512  HIT:      60173  MISS:      58339  iACCESS:          0  iHIT:          0  iMISS:          0  dACCESS:     118512  dHIT:      60173  dMISS:      58339  itACCESS:          0  itHIT:          0  itMISS:          0  dtACCESS:          0  dtHIT:          0  dtMISS:          0
LLC PREFETCH     ACCESS:    2854283  HIT:    1640665  MISS:    1213618  iACCESS:    1345550  iHIT:     844657  iMISS:     500893  dACCESS:    1508733  dHIT:     796008  dMISS:     712725  itACCESS:          0  itHIT:          0  itMISS:          0  dtACCESS:          0  dtHIT:          0  dtMISS:          0
LLC WRITE        ACCESS:     178502  HIT:     174909  MISS:       3593  iACCESS:          0  iHIT:          0  iMISS:          0  dACCESS:     178502  dHIT:     174909  dMISS:       3593  itACCESS:          0  itHIT:          0  itMISS:          0  dtACCESS:          0  dtHIT:          0  dtMISS:          0
LLC TRANSLATION  ACCESS:     141476  HIT:      27648  MISS:     113828  iACCESS:          0  iHIT:          0  iMISS:          0  dACCESS:          0  dHIT:          0  dMISS:          0  itACCESS:      43586  itHIT:       9238  itMISS:      34348  dtACCESS:      97890  dtHIT:      18410  dtMISS:      79480
LLC PREFETCH  REQUESTED:          0  ISSUED:          0  CROSSED:          0  USEFUL:          0  USELESS:          0
LLC AVERAGE iMISS LATENCY: 52.5744 cycles
LLC AVERAGE dMISS LATENCY: 98.8804 cycles
LLC AVERAGE itMISS LATENCY: 3.40857 cycles
LLC AVERAGE dtMISS LATENCY: 8.41212 cycles
LLC PAGE CROSSINGS (TLB HIT):         0 
LLC PAGE CROSSINGS (TLB MISS):         0 
LLC AVERAGE MISS LATENCY: 163.276 cycles

PageTableWalker TOTAL       ACCESS:      94919  
PageTableWalker AVERAGE LATENCY: 4.03026 cycles
PageTableWalker TOTAL LATENCY: 382548 cycles

DRAM Statistics
Channel 0
 RQ ROW_BUFFER_HIT:     488264
  ROW_BUFFER_MISS:    1276844
 AVG DBUS CONGESTED CYCLE:    3.64859
 WQ ROW_BUFFER_HIT:      37909
  ROW_BUFFER_MISS:      31822  FULL:          0

