last_page:0x200000000000000
VMEM_RES_CAP:0x100000
PAGE_SIZE:4096
LOG2_PAGE_SIZE:12
LOG2_PAGE_TABLE_SIZE:9
page_table_levels:5
WARNING: physical memory size is smaller than virtual memory size
FDiP enabled with aggresivity 16

*** ChampSim Multicore Out-of-Order Simulator ***

Warmup Instructions: 50000000
Simulation Instructions: 100000000
Number of CPUs: 1
Small page size: 4096
Large page size: 2097152

CPU 0 Bimodal branch predictor
Basic BTB sets: 1024 ways: 8 indirect buffer size: 4096 RAS size: 64
Instruction page size distrubution: 0
Loading instruction page size distribution from /home/bsc/bsc018186/scratch/itp_asplos25_AE/dump/srv641_ap.pdst
Data page size distrubution: 0
Loading data page size distribution from /home/bsc/bsc018186/scratch/itp_asplos25_AE/dump/srv641_ap.pdst
cpu0_L2C IP-based stride prefetcher
cpu0_L1D next line prefetcher
CHiRPing...
cpu0_L1I next line prefetcher
Off-chip DRAM Size: 4 GiB Channels: 1 Width: 64-bit Data Rate: 3200 MT/s
Heartbeat CPU 0 instructions: 10000003 cycles: 2500205 heartbeat IPC: 3.99968 cumulative IPC: 3.99968 (Simulation time: 0 hr 0 min 38 sec) 
Heartbeat CPU 0 instructions: 20000001 cycles: 5000274 heartbeat IPC: 3.99989 cumulative IPC: 3.99979 (Simulation time: 0 hr 1 min 18 sec) 
Heartbeat CPU 0 instructions: 30000003 cycles: 7500331 heartbeat IPC: 3.99991 cumulative IPC: 3.99983 (Simulation time: 0 hr 1 min 59 sec) 
Heartbeat CPU 0 instructions: 40000003 cycles: 10000436 heartbeat IPC: 3.99984 cumulative IPC: 3.99983 (Simulation time: 0 hr 2 min 40 sec) 
Heartbeat CPU 0 instructions: 50000001 cycles: 12500483 heartbeat IPC: 3.99993 cumulative IPC: 3.99985 (Simulation time: 0 hr 3 min 21 sec) 
Warmup finished CPU 0 instructions: 50000001 cycles: 12500484 cumulative IPC: 3.99985 (Simulation time: 0 hr 3 min 21 sec) 

Warmup complete CPU 0 instructions: 50000001 cycles: 12500484 (Simulation time: 0 hr 3 min 21 sec) 

Heartbeat CPU 0 instructions: 60000003 cycles: 33541476 heartbeat IPC: 0.475263 cumulative IPC: 0.475263 (Simulation time: 0 hr 4 min 35 sec) 
Heartbeat CPU 0 instructions: 70000002 cycles: 54046781 heartbeat IPC: 0.487679 cumulative IPC: 0.481391 (Simulation time: 0 hr 5 min 48 sec) 
Heartbeat CPU 0 instructions: 80000003 cycles: 74904484 heartbeat IPC: 0.47944 cumulative IPC: 0.480739 (Simulation time: 0 hr 7 min 2 sec) 
Heartbeat CPU 0 instructions: 90000002 cycles: 95297767 heartbeat IPC: 0.490358 cumulative IPC: 0.483108 (Simulation time: 0 hr 8 min 17 sec) 
Heartbeat CPU 0 instructions: 100000001 cycles: 115575575 heartbeat IPC: 0.49315 cumulative IPC: 0.485084 (Simulation time: 0 hr 9 min 32 sec) 
*** Reached end of trace: /gpfs/projects/bsc18/MN4/bsc18/romol/ChampSim/traces/qualcomm_srv/srv641_ap.champsimtrace.xz
Heartbeat CPU 0 instructions: 110000000 cycles: 136778580 heartbeat IPC: 0.471632 cumulative IPC: 0.482789 (Simulation time: 0 hr 10 min 48 sec) 
Heartbeat CPU 0 instructions: 120000000 cycles: 157060012 heartbeat IPC: 0.493062 cumulative IPC: 0.48423 (Simulation time: 0 hr 12 min 3 sec) 
Heartbeat CPU 0 instructions: 130000001 cycles: 176980621 heartbeat IPC: 0.501993 cumulative IPC: 0.486381 (Simulation time: 0 hr 13 min 18 sec) 
Heartbeat CPU 0 instructions: 140000000 cycles: 198430556 heartbeat IPC: 0.466202 cumulative IPC: 0.484053 (Simulation time: 0 hr 14 min 35 sec) 
Heartbeat CPU 0 instructions: 150000003 cycles: 218433685 heartbeat IPC: 0.499922 cumulative IPC: 0.485595 (Simulation time: 0 hr 15 min 50 sec) 
Simulation finished CPU 0 instructions: 100000002 cycles: 205933202 cumulative IPC: 0.485595 (Simulation time: 0 hr 15 min 50 sec) 

Simulation complete CPU 0 instructions: 100000002 cycles: 205933202 (Simulation time: 0 hr 15 min 50 sec) 


ChampSim completed all CPUs

Saving instructions large page distribution to /home/bsc/bsc018186/scratch/itp_asplos25_AE/dump/srv641_ap.pdst...
Saving data large page distribution to /home/bsc/bsc018186/scratch/itp_asplos25_AE/dump/srv641_ap.pdst...
=== Simulation ===
CPU 0 runs /gpfs/projects/bsc18/MN4/bsc18/romol/ChampSim/traces/qualcomm_srv/srv641_ap.champsimtrace.xz

Region of Interest Statistics

CPU 0 cumulative IPC: 0.485595 instructions: 100000002 cycles: 205933202
CPU 0 Branch Prediction Accuracy: 80.3626% MPKI: 35.4015 Average ROB Occupancy at Mispredict: 10.7752
Branch type MPKI
BRANCH_DIRECT_JUMP: 1.28661
BRANCH_INDIRECT: 17.8559
BRANCH_CONDITIONAL: 11.4268
BRANCH_DIRECT_CALL: 2.414
BRANCH_INDIRECT_CALL: 0.69097
BRANCH_RETURN: 1.72728

Instructions large pages: 0
Instructions small pages: 1188
Large page distribution for instructions: 0%

Data large pages: 0
Data small pages: 5766
Large page distribution for data: 0%

cpu0_L1I TOTAL       ACCESS:   35254272  HIT:   27369537  MISS:    7884735  iACCESS:   35254272  iHIT:   27369537  iMISS:    7884735  dACCESS:          0  dHIT:          0  dMISS:          0  itACCESS:          0  itHIT:          0  itMISS:          0  dtACCESS:          0  dtHIT:          0  dtMISS:          0
cpu0_L1I LOAD         ACCESS:   10142455  HIT:    7965367  MISS:    2177088  iACCESS:   10142455  iHIT:    7965367  iMISS:    2177088  dACCESS:          0  dHIT:          0  dMISS:          0  itACCESS:          0  itHIT:          0  itMISS:          0  dtACCESS:          0  dtHIT:          0  dtMISS:          0
cpu0_L1I RFO          ACCESS:          0  HIT:          0  MISS:          0  iACCESS:          0  iHIT:          0  iMISS:          0  dACCESS:          0  dHIT:          0  dMISS:          0  itACCESS:          0  itHIT:          0  itMISS:          0  dtACCESS:          0  dtHIT:          0  dtMISS:          0
cpu0_L1I PREFETCH     ACCESS:   25111817  HIT:   19404170  MISS:    5707647  iACCESS:   25111817  iHIT:   19404170  iMISS:    5707647  dACCESS:          0  dHIT:          0  dMISS:          0  itACCESS:          0  itHIT:          0  itMISS:          0  dtACCESS:          0  dtHIT:          0  dtMISS:          0
cpu0_L1I WRITE        ACCESS:          0  HIT:          0  MISS:          0  iACCESS:          0  iHIT:          0  iMISS:          0  dACCESS:          0  dHIT:          0  dMISS:          0  itACCESS:          0  itHIT:          0  itMISS:          0  dtACCESS:          0  dtHIT:          0  dtMISS:          0
cpu0_L1I TRANSLATION  ACCESS:          0  HIT:          0  MISS:          0  iACCESS:          0  iHIT:          0  iMISS:          0  dACCESS:          0  dHIT:          0  dMISS:          0  itACCESS:          0  itHIT:          0  itMISS:          0  dtACCESS:          0  dtHIT:          0  dtMISS:          0
cpu0_L1I PREFETCH  REQUESTED:   27493464  ISSUED:   27493464  CROSSED:          0  USEFUL:    1965783  USELESS:     660672
cpu0_L1I AVERAGE iMISS LATENCY: 19.264 cycles
cpu0_L1I AVERAGE dMISS LATENCY: 0 cycles
cpu0_L1I AVERAGE itMISS LATENCY: 0 cycles
cpu0_L1I AVERAGE dtMISS LATENCY: 0 cycles
cpu0_L1I PAGE CROSSINGS (TLB HIT):         0 
cpu0_L1I PAGE CROSSINGS (TLB MISS):         0 
cpu0_L1I AVERAGE MISS LATENCY: 19.264 cycles
cpu0_ITLB TOTAL       ACCESS:   29760661  HIT:   27800133  MISS:    1960528  iACCESS:   29760661  iHIT:   27800133  iMISS:    1960528  dACCESS:          0  dHIT:          0  dMISS:          0  itACCESS:          0  itHIT:          0  itMISS:          0  dtACCESS:          0  dtHIT:          0  dtMISS:          0
cpu0_ITLB LOAD         ACCESS:   29760661  HIT:   27800133  MISS:    1960528  iACCESS:   29760661  iHIT:   27800133  iMISS:    1960528  dACCESS:          0  dHIT:          0  dMISS:          0  itACCESS:          0  itHIT:          0  itMISS:          0  dtACCESS:          0  dtHIT:          0  dtMISS:          0
cpu0_ITLB RFO          ACCESS:          0  HIT:          0  MISS:          0  iACCESS:          0  iHIT:          0  iMISS:          0  dACCESS:          0  dHIT:          0  dMISS:          0  itACCESS:          0  itHIT:          0  itMISS:          0  dtACCESS:          0  dtHIT:          0  dtMISS:          0
cpu0_ITLB PREFETCH     ACCESS:          0  HIT:          0  MISS:          0  iACCESS:          0  iHIT:          0  iMISS:          0  dACCESS:          0  dHIT:          0  dMISS:          0  itACCESS:          0  itHIT:          0  itMISS:          0  dtACCESS:          0  dtHIT:          0  dtMISS:          0
cpu0_ITLB WRITE        ACCESS:          0  HIT:          0  MISS:          0  iACCESS:          0  iHIT:          0  iMISS:          0  dACCESS:          0  dHIT:          0  dMISS:          0  itACCESS:          0  itHIT:          0  itMISS:          0  dtACCESS:          0  dtHIT:          0  dtMISS:          0
cpu0_ITLB TRANSLATION  ACCESS:          0  HIT:          0  MISS:          0  iACCESS:          0  iHIT:          0  iMISS:          0  dACCESS:          0  dHIT:          0  dMISS:          0  itACCESS:          0  itHIT:          0  itMISS:          0  dtACCESS:          0  dtHIT:          0  dtMISS:          0
cpu0_ITLB PREFETCH  REQUESTED:          0  ISSUED:          0  CROSSED:          0  USEFUL:     329535  USELESS:      63254
cpu0_ITLB AVERAGE iMISS LATENCY: 7.73137 cycles
cpu0_ITLB AVERAGE dMISS LATENCY: 0 cycles
cpu0_ITLB AVERAGE itMISS LATENCY: 0 cycles
cpu0_ITLB AVERAGE dtMISS LATENCY: 0 cycles
cpu0_ITLB PAGE CROSSINGS (TLB HIT):         0 
cpu0_ITLB PAGE CROSSINGS (TLB MISS):         0 
cpu0_ITLB AVERAGE MISS LATENCY: 7.73137 cycles
cpu0_DTLB TOTAL       ACCESS:   28097380  HIT:   26119143  MISS:    1978237  iACCESS:          0  iHIT:          0  iMISS:          0  dACCESS:   28097380  dHIT:   26119143  dMISS:    1978237  itACCESS:          0  itHIT:          0  itMISS:          0  dtACCESS:          0  dtHIT:          0  dtMISS:          0
cpu0_DTLB LOAD         ACCESS:   28097380  HIT:   26119143  MISS:    1978237  iACCESS:          0  iHIT:          0  iMISS:          0  dACCESS:   28097380  dHIT:   26119143  dMISS:    1978237  itACCESS:          0  itHIT:          0  itMISS:          0  dtACCESS:          0  dtHIT:          0  dtMISS:          0
cpu0_DTLB RFO          ACCESS:          0  HIT:          0  MISS:          0  iACCESS:          0  iHIT:          0  iMISS:          0  dACCESS:          0  dHIT:          0  dMISS:          0  itACCESS:          0  itHIT:          0  itMISS:          0  dtACCESS:          0  dtHIT:          0  dtMISS:          0
cpu0_DTLB PREFETCH     ACCESS:          0  HIT:          0  MISS:          0  iACCESS:          0  iHIT:          0  iMISS:          0  dACCESS:          0  dHIT:          0  dMISS:          0  itACCESS:          0  itHIT:          0  itMISS:          0  dtACCESS:          0  dtHIT:          0  dtMISS:          0
cpu0_DTLB WRITE        ACCESS:          0  HIT:          0  MISS:          0  iACCESS:          0  iHIT:          0  iMISS:          0  dACCESS:          0  dHIT:          0  dMISS:          0  itACCESS:          0  itHIT:          0  itMISS:          0  dtACCESS:          0  dtHIT:          0  dtMISS:          0
cpu0_DTLB TRANSLATION  ACCESS:          0  HIT:          0  MISS:          0  iACCESS:          0  iHIT:          0  iMISS:          0  dACCESS:          0  dHIT:          0  dMISS:          0  itACCESS:          0  itHIT:          0  itMISS:          0  dtACCESS:          0  dtHIT:          0  dtMISS:          0
cpu0_DTLB PREFETCH  REQUESTED:          0  ISSUED:          0  CROSSED:          0  USEFUL:          0  USELESS:          0
cpu0_DTLB AVERAGE iMISS LATENCY: 0 cycles
cpu0_DTLB AVERAGE dMISS LATENCY: 20.3368 cycles
cpu0_DTLB AVERAGE itMISS LATENCY: 0 cycles
cpu0_DTLB AVERAGE dtMISS LATENCY: 0 cycles
cpu0_DTLB PAGE CROSSINGS (TLB HIT):         0 
cpu0_DTLB PAGE CROSSINGS (TLB MISS):         0 
cpu0_DTLB AVERAGE MISS LATENCY: 20.3368 cycles
cpu0_STLB TOTAL       ACCESS:    1589108  HIT:    1357494  MISS:     231614  iACCESS:     392801  iHIT:     305665  iMISS:      87136  dACCESS:    1196307  dHIT:    1051829  dMISS:     144478  itACCESS:          0  itHIT:          0  itMISS:          0  dtACCESS:          0  dtHIT:          0  dtMISS:          0
cpu0_STLB LOAD         ACCESS:    1589108  HIT:    1357494  MISS:     231614  iACCESS:     392801  iHIT:     305665  iMISS:      87136  dACCESS:    1196307  dHIT:    1051829  dMISS:     144478  itACCESS:          0  itHIT:          0  itMISS:          0  dtACCESS:          0  dtHIT:          0  dtMISS:          0
cpu0_STLB RFO          ACCESS:          0  HIT:          0  MISS:          0  iACCESS:          0  iHIT:          0  iMISS:          0  dACCESS:          0  dHIT:          0  dMISS:          0  itACCESS:          0  itHIT:          0  itMISS:          0  dtACCESS:          0  dtHIT:          0  dtMISS:          0
cpu0_STLB PREFETCH     ACCESS:          0  HIT:          0  MISS:          0  iACCESS:          0  iHIT:          0  iMISS:          0  dACCESS:          0  dHIT:          0  dMISS:          0  itACCESS:          0  itHIT:          0  itMISS:          0  dtACCESS:          0  dtHIT:          0  dtMISS:          0
cpu0_STLB WRITE        ACCESS:          0  HIT:          0  MISS:          0  iACCESS:          0  iHIT:          0  iMISS:          0  dACCESS:          0  dHIT:          0  dMISS:          0  itACCESS:          0  itHIT:          0  itMISS:          0  dtACCESS:          0  dtHIT:          0  dtMISS:          0
cpu0_STLB TRANSLATION  ACCESS:          0  HIT:          0  MISS:          0  iACCESS:          0  iHIT:          0  iMISS:          0  dACCESS:          0  dHIT:          0  dMISS:          0  itACCESS:          0  itHIT:          0  itMISS:          0  dtACCESS:          0  dtHIT:          0  dtMISS:          0
cpu0_STLB PREFETCH  REQUESTED:          0  ISSUED:          0  CROSSED:          0  USEFUL:          0  USELESS:          0
cpu0_STLB AVERAGE iMISS LATENCY: 51.9022 cycles
cpu0_STLB AVERAGE dMISS LATENCY: 132.346 cycles
cpu0_STLB AVERAGE itMISS LATENCY: 0 cycles
cpu0_STLB AVERAGE dtMISS LATENCY: 0 cycles
cpu0_STLB PAGE CROSSINGS (TLB HIT):         0 
cpu0_STLB PAGE CROSSINGS (TLB MISS):         0 
cpu0_STLB AVERAGE MISS LATENCY: 184.248 cycles
cpu0_L1D TOTAL       ACCESS:   42831508  HIT:   38675974  MISS:    4155534  iACCESS:          0  iHIT:          0  iMISS:          0  dACCESS:   42541016  dHIT:   38648994  dMISS:    3892022  itACCESS:      93659  itHIT:      15007  itMISS:      78652  dtACCESS:     196833  dtHIT:      11973  dtMISS:     184860
cpu0_L1D LOAD         ACCESS:   19509769  HIT:   17730924  MISS:    1778845  iACCESS:          0  iHIT:          0  iMISS:          0  dACCESS:   19509769  dHIT:   17730924  dMISS:    1778845  itACCESS:          0  itHIT:          0  itMISS:          0  dtACCESS:          0  dtHIT:          0  dtMISS:          0
cpu0_L1D RFO          ACCESS:          0  HIT:          0  MISS:          0  iACCESS:          0  iHIT:          0  iMISS:          0  dACCESS:          0  dHIT:          0  dMISS:          0  itACCESS:          0  itHIT:          0  itMISS:          0  dtACCESS:          0  dtHIT:          0  dtMISS:          0
cpu0_L1D PREFETCH     ACCESS:   12873591  HIT:   11238265  MISS:    1635326  iACCESS:          0  iHIT:          0  iMISS:          0  dACCESS:   12873591  dHIT:   11238265  dMISS:    1635326  itACCESS:          0  itHIT:          0  itMISS:          0  dtACCESS:          0  dtHIT:          0  dtMISS:          0
cpu0_L1D WRITE        ACCESS:   10157656  HIT:    9679805  MISS:     477851  iACCESS:          0  iHIT:          0  iMISS:          0  dACCESS:   10157656  dHIT:    9679805  dMISS:     477851  itACCESS:          0  itHIT:          0  itMISS:          0  dtACCESS:          0  dtHIT:          0  dtMISS:          0
cpu0_L1D TRANSLATION  ACCESS:     290492  HIT:      26980  MISS:     263512  iACCESS:          0  iHIT:          0  iMISS:          0  dACCESS:          0  dHIT:          0  dMISS:          0  itACCESS:      93659  itHIT:      15007  itMISS:      78652  dtACCESS:     196833  dtHIT:      11973  dtMISS:     184860
cpu0_L1D PREFETCH  REQUESTED:   19509769  ISSUED:   17450405  CROSSED:          0  USEFUL:     307623  USELESS:     701650
cpu0_L1D AVERAGE iMISS LATENCY: 0 cycles
cpu0_L1D AVERAGE dMISS LATENCY: 40.2294 cycles
cpu0_L1D AVERAGE itMISS LATENCY: 2.71229 cycles
cpu0_L1D AVERAGE dtMISS LATENCY: 6.89248 cycles
cpu0_L1D PAGE CROSSINGS (TLB HIT):         0 
cpu0_L1D PAGE CROSSINGS (TLB MISS):         0 
cpu0_L1D AVERAGE MISS LATENCY: 49.8342 cycles
cpu0_L2C TOTAL       ACCESS:    7242733  HIT:    3769933  MISS:    3472800  iACCESS:    3365952  iHIT:    2083677  iMISS:    1282275  dACCESS:    3617479  dHIT:    1651923  dMISS:    1965556  itACCESS:      78652  itHIT:      12968  itMISS:      65684  dtACCESS:     180650  dtHIT:      21365  dtMISS:     159285
cpu0_L2C LOAD         ACCESS:    1725073  HIT:     937224  MISS:     787849  iACCESS:     777444  iHIT:     512522  iMISS:     264922  dACCESS:     947629  dHIT:     424702  dMISS:     522927  itACCESS:          0  itHIT:          0  itMISS:          0  dtACCESS:          0  dtHIT:          0  dtMISS:          0
cpu0_L2C RFO          ACCESS:     163880  HIT:      64228  MISS:      99652  iACCESS:          0  iHIT:          0  iMISS:          0  dACCESS:     163880  dHIT:      64228  dMISS:      99652  itACCESS:          0  itHIT:          0  itMISS:          0  dtACCESS:          0  dtHIT:          0  dtMISS:          0
cpu0_L2C PREFETCH     ACCESS:    4821037  HIT:    2461403  MISS:    2359634  iACCESS:    2588508  iHIT:    1571155  iMISS:    1017353  dACCESS:    2232529  dHIT:     890248  dMISS:    1342281  itACCESS:          0  itHIT:          0  itMISS:          0  dtACCESS:          0  dtHIT:          0  dtMISS:          0
cpu0_L2C WRITE        ACCESS:     273441  HIT:     272745  MISS:        696  iACCESS:          0  iHIT:          0  iMISS:          0  dACCESS:     273441  dHIT:     272745  dMISS:        696  itACCESS:          0  itHIT:          0  itMISS:          0  dtACCESS:          0  dtHIT:          0  dtMISS:          0
cpu0_L2C TRANSLATION  ACCESS:     259302  HIT:      34333  MISS:     224969  iACCESS:          0  iHIT:          0  iMISS:          0  dACCESS:          0  dHIT:          0  dMISS:          0  itACCESS:      78652  itHIT:      12968  itMISS:      65684  dtACCESS:     180650  dtHIT:      21365  dtMISS:     159285
cpu0_L2C PREFETCH  REQUESTED:    1478382  ISSUED:    1478256  CROSSED:          0  USEFUL:     347460  USELESS:     290043
cpu0_L2C AVERAGE iMISS LATENCY: 35.3032 cycles
cpu0_L2C AVERAGE dMISS LATENCY: 61.6991 cycles
cpu0_L2C AVERAGE itMISS LATENCY: 3.02202 cycles
cpu0_L2C AVERAGE dtMISS LATENCY: 7.7305 cycles
cpu0_L2C PAGE CROSSINGS (TLB HIT):         0 
cpu0_L2C PAGE CROSSINGS (TLB MISS):         0 
cpu0_L2C AVERAGE MISS LATENCY: 107.755 cycles
LLC TOTAL       ACCESS:    3438126  HIT:    1487676  MISS:    1950450  iACCESS:    1205607  iHIT:     533030  iMISS:     672577  dACCESS:    2007550  dHIT:     908841  dMISS:    1098709  itACCESS:      65684  itHIT:      12550  itMISS:      53134  dtACCESS:     159285  dtHIT:      33255  dtMISS:     126030
LLC LOAD         ACCESS:     783192  HIT:     357708  MISS:     425484  iACCESS:     263806  iHIT:     120807  iMISS:     142999  dACCESS:     519386  dHIT:     236901  dMISS:     282485  itACCESS:          0  itHIT:          0  itMISS:          0  dtACCESS:          0  dtHIT:          0  dtMISS:          0
LLC RFO          ACCESS:      99627  HIT:      38158  MISS:      61469  iACCESS:          0  iHIT:          0  iMISS:          0  dACCESS:      99627  dHIT:      38158  dMISS:      61469  itACCESS:          0  itHIT:          0  itMISS:          0  dtACCESS:          0  dtHIT:          0  dtMISS:          0
LLC PREFETCH     ACCESS:    2185406  HIT:     909226  MISS:    1276180  iACCESS:     941801  iHIT:     412223  iMISS:     529578  dACCESS:    1243605  dHIT:     497003  dMISS:     746602  itACCESS:          0  itHIT:          0  itMISS:          0  dtACCESS:          0  dtHIT:          0  dtMISS:          0
LLC WRITE        ACCESS:     144932  HIT:     136779  MISS:       8153  iACCESS:          0  iHIT:          0  iMISS:          0  dACCESS:     144932  dHIT:     136779  dMISS:       8153  itACCESS:          0  itHIT:          0  itMISS:          0  dtACCESS:          0  dtHIT:          0  dtMISS:          0
LLC TRANSLATION  ACCESS:     224969  HIT:      45805  MISS:     179164  iACCESS:          0  iHIT:          0  iMISS:          0  dACCESS:          0  dHIT:          0  dMISS:          0  itACCESS:      65684  itHIT:      12550  itMISS:      53134  dtACCESS:     159285  dtHIT:      33255  dtMISS:     126030
LLC PREFETCH  REQUESTED:          0  ISSUED:          0  CROSSED:          0  USEFUL:          0  USELESS:          0
LLC AVERAGE iMISS LATENCY: 50.7641 cycles
LLC AVERAGE dMISS LATENCY: 91.9528 cycles
LLC AVERAGE itMISS LATENCY: 4.71615 cycles
LLC AVERAGE dtMISS LATENCY: 12.1561 cycles
LLC PAGE CROSSINGS (TLB HIT):         0 
LLC PAGE CROSSINGS (TLB MISS):         0 
LLC AVERAGE MISS LATENCY: 159.59 cycles

PageTableWalker TOTAL       ACCESS:     115987  
PageTableWalker AVERAGE LATENCY: 5.07081 cycles
PageTableWalker TOTAL LATENCY: 588147 cycles

DRAM Statistics
Channel 0
 RQ ROW_BUFFER_HIT:     541960
  ROW_BUFFER_MISS:    1385028
 AVG DBUS CONGESTED CYCLE:    3.63421
 WQ ROW_BUFFER_HIT:      37082
  ROW_BUFFER_MISS:      25704  FULL:          0

