last_page:0x200000000000000
VMEM_RES_CAP:0x100000
PAGE_SIZE:4096
LOG2_PAGE_SIZE:12
LOG2_PAGE_TABLE_SIZE:9
page_table_levels:5
WARNING: physical memory size is smaller than virtual memory size
FDiP enabled with aggresivity 16

*** ChampSim Multicore Out-of-Order Simulator ***

Warmup Instructions: 50000000
Simulation Instructions: 100000000
Number of CPUs: 1
Small page size: 4096
Large page size: 2097152

CPU 0 Bimodal branch predictor
Basic BTB sets: 1024 ways: 8 indirect buffer size: 4096 RAS size: 64
Instruction page size distrubution: 0
Loading instruction page size distribution from /home/bsc/bsc018186/scratch/itp_asplos25_AE/dump/srv638_ap.pdst
Data page size distrubution: 0
Loading data page size distribution from /home/bsc/bsc018186/scratch/itp_asplos25_AE/dump/srv638_ap.pdst
cpu0_L2C IP-based stride prefetcher
cpu0_L1D next line prefetcher
cpu0_L1I next line prefetcher
Off-chip DRAM Size: 4 GiB Channels: 1 Width: 64-bit Data Rate: 3200 MT/s
Heartbeat CPU 0 instructions: 10000003 cycles: 2500183 heartbeat IPC: 3.99971 cumulative IPC: 3.99971 (Simulation time: 0 hr 0 min 40 sec) 
Heartbeat CPU 0 instructions: 20000001 cycles: 5000212 heartbeat IPC: 3.99996 cumulative IPC: 3.99984 (Simulation time: 0 hr 1 min 21 sec) 
Heartbeat CPU 0 instructions: 30000003 cycles: 7500214 heartbeat IPC: 4 cumulative IPC: 3.99989 (Simulation time: 0 hr 2 min 3 sec) 
Heartbeat CPU 0 instructions: 40000003 cycles: 10000252 heartbeat IPC: 3.99994 cumulative IPC: 3.9999 (Simulation time: 0 hr 2 min 45 sec) 
Heartbeat CPU 0 instructions: 50000002 cycles: 12500288 heartbeat IPC: 3.99995 cumulative IPC: 3.99991 (Simulation time: 0 hr 3 min 27 sec) 
Warmup finished CPU 0 instructions: 50000002 cycles: 12500289 cumulative IPC: 3.99991 (Simulation time: 0 hr 3 min 27 sec) 

Warmup complete CPU 0 instructions: 50000002 cycles: 12500289 (Simulation time: 0 hr 3 min 27 sec) 

Heartbeat CPU 0 instructions: 60000001 cycles: 26802303 heartbeat IPC: 0.699203 cumulative IPC: 0.699203 (Simulation time: 0 hr 4 min 33 sec) 
Heartbeat CPU 0 instructions: 70000002 cycles: 40820000 heartbeat IPC: 0.713385 cumulative IPC: 0.706222 (Simulation time: 0 hr 5 min 39 sec) 
Heartbeat CPU 0 instructions: 80000003 cycles: 54905661 heartbeat IPC: 0.709942 cumulative IPC: 0.707458 (Simulation time: 0 hr 6 min 45 sec) 
Heartbeat CPU 0 instructions: 90000000 cycles: 69069988 heartbeat IPC: 0.705999 cumulative IPC: 0.707093 (Simulation time: 0 hr 7 min 50 sec) 
Heartbeat CPU 0 instructions: 100000001 cycles: 82940548 heartbeat IPC: 0.720952 cumulative IPC: 0.709822 (Simulation time: 0 hr 8 min 55 sec) 
*** Reached end of trace: /gpfs/projects/bsc18/MN4/bsc18/romol/ChampSim/traces/qualcomm_srv/srv638_ap.champsimtrace.xz
Heartbeat CPU 0 instructions: 110000001 cycles: 97053195 heartbeat IPC: 0.708585 cumulative IPC: 0.709615 (Simulation time: 0 hr 10 min 1 sec) 
Heartbeat CPU 0 instructions: 120000002 cycles: 110731843 heartbeat IPC: 0.731067 cumulative IPC: 0.712602 (Simulation time: 0 hr 11 min 6 sec) 
Heartbeat CPU 0 instructions: 130000003 cycles: 124260154 heartbeat IPC: 0.739191 cumulative IPC: 0.715821 (Simulation time: 0 hr 12 min 11 sec) 
Heartbeat CPU 0 instructions: 140000000 cycles: 138023440 heartbeat IPC: 0.726571 cumulative IPC: 0.717 (Simulation time: 0 hr 13 min 16 sec) 
Heartbeat CPU 0 instructions: 150000003 cycles: 151939851 heartbeat IPC: 0.718577 cumulative IPC: 0.717157 (Simulation time: 0 hr 14 min 22 sec) 
Simulation finished CPU 0 instructions: 100000001 cycles: 139439563 cumulative IPC: 0.717157 (Simulation time: 0 hr 14 min 22 sec) 

Simulation complete CPU 0 instructions: 100000001 cycles: 139439563 (Simulation time: 0 hr 14 min 22 sec) 


ChampSim completed all CPUs

Saving instructions large page distribution to /home/bsc/bsc018186/scratch/itp_asplos25_AE/dump/srv638_ap.pdst...
Saving data large page distribution to /home/bsc/bsc018186/scratch/itp_asplos25_AE/dump/srv638_ap.pdst...
=== Simulation ===
CPU 0 runs /gpfs/projects/bsc18/MN4/bsc18/romol/ChampSim/traces/qualcomm_srv/srv638_ap.champsimtrace.xz

Region of Interest Statistics

CPU 0 cumulative IPC: 0.717157 instructions: 100000001 cycles: 139439563
CPU 0 Branch Prediction Accuracy: 83.3065% MPKI: 29.9322 Average ROB Occupancy at Mispredict: 12.4199
Branch type MPKI
BRANCH_DIRECT_JUMP: 0.96882
BRANCH_INDIRECT: 15.5202
BRANCH_CONDITIONAL: 9.76945
BRANCH_DIRECT_CALL: 1.84419
BRANCH_INDIRECT_CALL: 0.48996
BRANCH_RETURN: 1.33965

Instructions large pages: 0
Instructions small pages: 867
Large page distribution for instructions: 0%

Data large pages: 0
Data small pages: 8669
Large page distribution for data: 0%

cpu0_L1I TOTAL       ACCESS:   34992914  HIT:   26584616  MISS:    8408298  iACCESS:   34992914  iHIT:   26584616  iMISS:    8408298  dACCESS:          0  dHIT:          0  dMISS:          0  itACCESS:          0  itHIT:          0  itMISS:          0  dtACCESS:          0  dtHIT:          0  dtMISS:          0
cpu0_L1I LOAD         ACCESS:   10206681  HIT:    7859258  MISS:    2347423  iACCESS:   10206681  iHIT:    7859258  iMISS:    2347423  dACCESS:          0  dHIT:          0  dMISS:          0  itACCESS:          0  itHIT:          0  itMISS:          0  dtACCESS:          0  dtHIT:          0  dtMISS:          0
cpu0_L1I RFO          ACCESS:          0  HIT:          0  MISS:          0  iACCESS:          0  iHIT:          0  iMISS:          0  dACCESS:          0  dHIT:          0  dMISS:          0  itACCESS:          0  itHIT:          0  itMISS:          0  dtACCESS:          0  dtHIT:          0  dtMISS:          0
cpu0_L1I PREFETCH     ACCESS:   24786233  HIT:   18725358  MISS:    6060875  iACCESS:   24786233  iHIT:   18725358  iMISS:    6060875  dACCESS:          0  dHIT:          0  dMISS:          0  itACCESS:          0  itHIT:          0  itMISS:          0  dtACCESS:          0  dtHIT:          0  dtMISS:          0
cpu0_L1I WRITE        ACCESS:          0  HIT:          0  MISS:          0  iACCESS:          0  iHIT:          0  iMISS:          0  dACCESS:          0  dHIT:          0  dMISS:          0  itACCESS:          0  itHIT:          0  itMISS:          0  dtACCESS:          0  dtHIT:          0  dtMISS:          0
cpu0_L1I TRANSLATION  ACCESS:          0  HIT:          0  MISS:          0  iACCESS:          0  iHIT:          0  iMISS:          0  dACCESS:          0  dHIT:          0  dMISS:          0  itACCESS:          0  itHIT:          0  itMISS:          0  dtACCESS:          0  dtHIT:          0  dtMISS:          0
cpu0_L1I PREFETCH  REQUESTED:   27082796  ISSUED:   27081141  CROSSED:          0  USEFUL:    1936345  USELESS:     632581
cpu0_L1I AVERAGE iMISS LATENCY: 13.1699 cycles
cpu0_L1I AVERAGE dMISS LATENCY: 0 cycles
cpu0_L1I AVERAGE itMISS LATENCY: 0 cycles
cpu0_L1I AVERAGE dtMISS LATENCY: 0 cycles
cpu0_L1I PAGE CROSSINGS (TLB HIT):         0 
cpu0_L1I PAGE CROSSINGS (TLB MISS):         0 
cpu0_L1I AVERAGE MISS LATENCY: 13.1699 cycles
cpu0_ITLB TOTAL       ACCESS:   29002107  HIT:   27014138  MISS:    1987969  iACCESS:   29002107  iHIT:   27014138  iMISS:    1987969  dACCESS:          0  dHIT:          0  dMISS:          0  itACCESS:          0  itHIT:          0  itMISS:          0  dtACCESS:          0  dtHIT:          0  dtMISS:          0
cpu0_ITLB LOAD         ACCESS:   29002107  HIT:   27014138  MISS:    1987969  iACCESS:   29002107  iHIT:   27014138  iMISS:    1987969  dACCESS:          0  dHIT:          0  dMISS:          0  itACCESS:          0  itHIT:          0  itMISS:          0  dtACCESS:          0  dtHIT:          0  dtMISS:          0
cpu0_ITLB RFO          ACCESS:          0  HIT:          0  MISS:          0  iACCESS:          0  iHIT:          0  iMISS:          0  dACCESS:          0  dHIT:          0  dMISS:          0  itACCESS:          0  itHIT:          0  itMISS:          0  dtACCESS:          0  dtHIT:          0  dtMISS:          0
cpu0_ITLB PREFETCH     ACCESS:          0  HIT:          0  MISS:          0  iACCESS:          0  iHIT:          0  iMISS:          0  dACCESS:          0  dHIT:          0  dMISS:          0  itACCESS:          0  itHIT:          0  itMISS:          0  dtACCESS:          0  dtHIT:          0  dtMISS:          0
cpu0_ITLB WRITE        ACCESS:          0  HIT:          0  MISS:          0  iACCESS:          0  iHIT:          0  iMISS:          0  dACCESS:          0  dHIT:          0  dMISS:          0  itACCESS:          0  itHIT:          0  itMISS:          0  dtACCESS:          0  dtHIT:          0  dtMISS:          0
cpu0_ITLB TRANSLATION  ACCESS:          0  HIT:          0  MISS:          0  iACCESS:          0  iHIT:          0  iMISS:          0  dACCESS:          0  dHIT:          0  dMISS:          0  itACCESS:          0  itHIT:          0  itMISS:          0  dtACCESS:          0  dtHIT:          0  dtMISS:          0
cpu0_ITLB PREFETCH  REQUESTED:          0  ISSUED:          0  CROSSED:          0  USEFUL:     325072  USELESS:      62338
cpu0_ITLB AVERAGE iMISS LATENCY: 2.89419 cycles
cpu0_ITLB AVERAGE dMISS LATENCY: 0 cycles
cpu0_ITLB AVERAGE itMISS LATENCY: 0 cycles
cpu0_ITLB AVERAGE dtMISS LATENCY: 0 cycles
cpu0_ITLB PAGE CROSSINGS (TLB HIT):         0 
cpu0_ITLB PAGE CROSSINGS (TLB MISS):         0 
cpu0_ITLB AVERAGE MISS LATENCY: 2.89419 cycles
cpu0_DTLB TOTAL       ACCESS:   27698102  HIT:   25661053  MISS:    2037049  iACCESS:          0  iHIT:          0  iMISS:          0  dACCESS:   27698102  dHIT:   25661053  dMISS:    2037049  itACCESS:          0  itHIT:          0  itMISS:          0  dtACCESS:          0  dtHIT:          0  dtMISS:          0
cpu0_DTLB LOAD         ACCESS:   27698102  HIT:   25661053  MISS:    2037049  iACCESS:          0  iHIT:          0  iMISS:          0  dACCESS:   27698102  dHIT:   25661053  dMISS:    2037049  itACCESS:          0  itHIT:          0  itMISS:          0  dtACCESS:          0  dtHIT:          0  dtMISS:          0
cpu0_DTLB RFO          ACCESS:          0  HIT:          0  MISS:          0  iACCESS:          0  iHIT:          0  iMISS:          0  dACCESS:          0  dHIT:          0  dMISS:          0  itACCESS:          0  itHIT:          0  itMISS:          0  dtACCESS:          0  dtHIT:          0  dtMISS:          0
cpu0_DTLB PREFETCH     ACCESS:          0  HIT:          0  MISS:          0  iACCESS:          0  iHIT:          0  iMISS:          0  dACCESS:          0  dHIT:          0  dMISS:          0  itACCESS:          0  itHIT:          0  itMISS:          0  dtACCESS:          0  dtHIT:          0  dtMISS:          0
cpu0_DTLB WRITE        ACCESS:          0  HIT:          0  MISS:          0  iACCESS:          0  iHIT:          0  iMISS:          0  dACCESS:          0  dHIT:          0  dMISS:          0  itACCESS:          0  itHIT:          0  itMISS:          0  dtACCESS:          0  dtHIT:          0  dtMISS:          0
cpu0_DTLB TRANSLATION  ACCESS:          0  HIT:          0  MISS:          0  iACCESS:          0  iHIT:          0  iMISS:          0  dACCESS:          0  dHIT:          0  dMISS:          0  itACCESS:          0  itHIT:          0  itMISS:          0  dtACCESS:          0  dtHIT:          0  dtMISS:          0
cpu0_DTLB PREFETCH  REQUESTED:          0  ISSUED:          0  CROSSED:          0  USEFUL:          0  USELESS:          0
cpu0_DTLB AVERAGE iMISS LATENCY: 0 cycles
cpu0_DTLB AVERAGE dMISS LATENCY: 10.1393 cycles
cpu0_DTLB AVERAGE itMISS LATENCY: 0 cycles
cpu0_DTLB AVERAGE dtMISS LATENCY: 0 cycles
cpu0_DTLB PAGE CROSSINGS (TLB HIT):         0 
cpu0_DTLB PAGE CROSSINGS (TLB MISS):         0 
cpu0_DTLB AVERAGE MISS LATENCY: 10.1393 cycles
cpu0_STLB TOTAL       ACCESS:    1639669  HIT:    1477552  MISS:     162117  iACCESS:     387420  iHIT:     330999  iMISS:      56421  dACCESS:    1252249  dHIT:    1146553  dMISS:     105696  itACCESS:          0  itHIT:          0  itMISS:          0  dtACCESS:          0  dtHIT:          0  dtMISS:          0
cpu0_STLB LOAD         ACCESS:    1639669  HIT:    1477552  MISS:     162117  iACCESS:     387420  iHIT:     330999  iMISS:      56421  dACCESS:    1252249  dHIT:    1146553  dMISS:     105696  itACCESS:          0  itHIT:          0  itMISS:          0  dtACCESS:          0  dtHIT:          0  dtMISS:          0
cpu0_STLB RFO          ACCESS:          0  HIT:          0  MISS:          0  iACCESS:          0  iHIT:          0  iMISS:          0  dACCESS:          0  dHIT:          0  dMISS:          0  itACCESS:          0  itHIT:          0  itMISS:          0  dtACCESS:          0  dtHIT:          0  dtMISS:          0
cpu0_STLB PREFETCH     ACCESS:          0  HIT:          0  MISS:          0  iACCESS:          0  iHIT:          0  iMISS:          0  dACCESS:          0  dHIT:          0  dMISS:          0  itACCESS:          0  itHIT:          0  itMISS:          0  dtACCESS:          0  dtHIT:          0  dtMISS:          0
cpu0_STLB WRITE        ACCESS:          0  HIT:          0  MISS:          0  iACCESS:          0  iHIT:          0  iMISS:          0  dACCESS:          0  dHIT:          0  dMISS:          0  itACCESS:          0  itHIT:          0  itMISS:          0  dtACCESS:          0  dtHIT:          0  dtMISS:          0
cpu0_STLB TRANSLATION  ACCESS:          0  HIT:          0  MISS:          0  iACCESS:          0  iHIT:          0  iMISS:          0  dACCESS:          0  dHIT:          0  dMISS:          0  itACCESS:          0  itHIT:          0  itMISS:          0  dtACCESS:          0  dtHIT:          0  dtMISS:          0
cpu0_STLB PREFETCH  REQUESTED:          0  ISSUED:          0  CROSSED:          0  USEFUL:          0  USELESS:          0
cpu0_STLB AVERAGE iMISS LATENCY: 16.6309 cycles
cpu0_STLB AVERAGE dMISS LATENCY: 65.8866 cycles
cpu0_STLB AVERAGE itMISS LATENCY: 0 cycles
cpu0_STLB AVERAGE dtMISS LATENCY: 0 cycles
cpu0_STLB PAGE CROSSINGS (TLB HIT):         0 
cpu0_STLB PAGE CROSSINGS (TLB MISS):         0 
cpu0_STLB AVERAGE MISS LATENCY: 82.5175 cycles
cpu0_L1D TOTAL       ACCESS:   41411514  HIT:   37900820  MISS:    3510694  iACCESS:          0  iHIT:          0  iMISS:          0  dACCESS:   41188186  dHIT:   37881701  dMISS:    3306485  itACCESS:      61198  itHIT:       9007  itMISS:      52191  dtACCESS:     162130  dtHIT:      10112  dtMISS:     152018
cpu0_L1D LOAD         ACCESS:   18934296  HIT:   17416634  MISS:    1517662  iACCESS:          0  iHIT:          0  iMISS:          0  dACCESS:   18934296  dHIT:   17416634  dMISS:    1517662  itACCESS:          0  itHIT:          0  itMISS:          0  dtACCESS:          0  dtHIT:          0  dtMISS:          0
cpu0_L1D RFO          ACCESS:          0  HIT:          0  MISS:          0  iACCESS:          0  iHIT:          0  iMISS:          0  dACCESS:          0  dHIT:          0  dMISS:          0  itACCESS:          0  itHIT:          0  itMISS:          0  dtACCESS:          0  dtHIT:          0  dtMISS:          0
cpu0_L1D PREFETCH     ACCESS:   12144763  HIT:   10780477  MISS:    1364286  iACCESS:          0  iHIT:          0  iMISS:          0  dACCESS:   12144763  dHIT:   10780477  dMISS:    1364286  itACCESS:          0  itHIT:          0  itMISS:          0  dtACCESS:          0  dtHIT:          0  dtMISS:          0
cpu0_L1D WRITE        ACCESS:   10109127  HIT:    9684590  MISS:     424537  iACCESS:          0  iHIT:          0  iMISS:          0  dACCESS:   10109127  dHIT:    9684590  dMISS:     424537  itACCESS:          0  itHIT:          0  itMISS:          0  dtACCESS:          0  dtHIT:          0  dtMISS:          0
cpu0_L1D TRANSLATION  ACCESS:     223328  HIT:      19119  MISS:     204209  iACCESS:          0  iHIT:          0  iMISS:          0  dACCESS:          0  dHIT:          0  dMISS:          0  itACCESS:      61198  itHIT:       9007  itMISS:      52191  dtACCESS:     162130  dtHIT:      10112  dtMISS:     152018
cpu0_L1D PREFETCH  REQUESTED:   18934296  ISSUED:   16953984  CROSSED:          0  USEFUL:     310499  USELESS:     706624
cpu0_L1D AVERAGE iMISS LATENCY: 0 cycles
cpu0_L1D AVERAGE dMISS LATENCY: 32.1084 cycles
cpu0_L1D AVERAGE itMISS LATENCY: 0.627666 cycles
cpu0_L1D AVERAGE dtMISS LATENCY: 2.41336 cycles
cpu0_L1D PAGE CROSSINGS (TLB HIT):         0 
cpu0_L1D PAGE CROSSINGS (TLB MISS):         0 
cpu0_L1D AVERAGE MISS LATENCY: 35.1495 cycles
cpu0_L2C TOTAL       ACCESS:    7025046  HIT:    1730629  MISS:    5294417  iACCESS:    3317630  iHIT:     867949  iMISS:    2449681  dACCESS:    3515255  dHIT:     746426  dMISS:    2768829  itACCESS:      52191  itHIT:      38370  itMISS:      13821  dtACCESS:     139970  dtHIT:      77884  dtMISS:      62086
cpu0_L2C LOAD         ACCESS:    1728261  HIT:     314417  MISS:    1413844  iACCESS:     788607  iHIT:     148712  iMISS:     639895  dACCESS:     939654  dHIT:     165705  dMISS:     773949  itACCESS:          0  itHIT:          0  itMISS:          0  dtACCESS:          0  dtHIT:          0  dtMISS:          0
cpu0_L2C RFO          ACCESS:     156725  HIT:      54469  MISS:     102256  iACCESS:          0  iHIT:          0  iMISS:          0  dACCESS:     156725  dHIT:      54469  dMISS:     102256  itACCESS:          0  itHIT:          0  itMISS:          0  dtACCESS:          0  dtHIT:          0  dtMISS:          0
cpu0_L2C PREFETCH     ACCESS:    4661755  HIT:    1096338  MISS:    3565417  iACCESS:    2529023  iHIT:     719237  iMISS:    1809786  dACCESS:    2132732  dHIT:     377101  dMISS:    1755631  itACCESS:          0  itHIT:          0  itMISS:          0  dtACCESS:          0  dtHIT:          0  dtMISS:          0
cpu0_L2C WRITE        ACCESS:     286144  HIT:     149151  MISS:     136993  iACCESS:          0  iHIT:          0  iMISS:          0  dACCESS:     286144  dHIT:     149151  dMISS:     136993  itACCESS:          0  itHIT:          0  itMISS:          0  dtACCESS:          0  dtHIT:          0  dtMISS:          0
cpu0_L2C TRANSLATION  ACCESS:     192161  HIT:     116254  MISS:      75907  iACCESS:          0  iHIT:          0  iMISS:          0  dACCESS:          0  dHIT:          0  dMISS:          0  itACCESS:      52191  itHIT:      38370  itMISS:      13821  dtACCESS:     139970  dtHIT:      77884  dtMISS:      62086
cpu0_L2C PREFETCH  REQUESTED:    1401060  ISSUED:    1401060  CROSSED:          0  USEFUL:     403070  USELESS:     383521
cpu0_L2C AVERAGE iMISS LATENCY: 15.1004 cycles
cpu0_L2C AVERAGE dMISS LATENCY: 24.5417 cycles
cpu0_L2C AVERAGE itMISS LATENCY: 0.32468 cycles
cpu0_L2C AVERAGE dtMISS LATENCY: 1.34901 cycles
cpu0_L2C PAGE CROSSINGS (TLB HIT):         0 
cpu0_L2C PAGE CROSSINGS (TLB MISS):         0 
cpu0_L2C AVERAGE MISS LATENCY: 41.3158 cycles
LLC TOTAL       ACCESS:    5176018  HIT:    4400517  MISS:     775501  iACCESS:    2394190  iHIT:    2162010  iMISS:     232180  dACCESS:    2705921  dHIT:    2203803  dMISS:     502118  itACCESS:      13821  itHIT:       5334  itMISS:       8487  dtACCESS:      62086  dtHIT:      29370  dtMISS:      32716
LLC LOAD         ACCESS:    1412037  HIT:    1239714  MISS:     172323  iACCESS:     638397  iHIT:     587544  iMISS:      50853  dACCESS:     773640  dHIT:     652170  dMISS:     121470  itACCESS:          0  itHIT:          0  itMISS:          0  dtACCESS:          0  dtHIT:          0  dtMISS:          0
LLC RFO          ACCESS:     102256  HIT:      71311  MISS:      30945  iACCESS:          0  iHIT:          0  iMISS:          0  dACCESS:     102256  dHIT:      71311  dMISS:      30945  itACCESS:          0  itHIT:          0  itMISS:          0  dtACCESS:          0  dtHIT:          0  dtMISS:          0
LLC PREFETCH     ACCESS:    3461138  HIT:    2938655  MISS:     522483  iACCESS:    1755793  iHIT:    1574466  iMISS:     181327  dACCESS:    1705345  dHIT:    1364189  dMISS:     341156  itACCESS:          0  itHIT:          0  itMISS:          0  dtACCESS:          0  dtHIT:          0  dtMISS:          0
LLC WRITE        ACCESS:     124680  HIT:     116133  MISS:       8547  iACCESS:          0  iHIT:          0  iMISS:          0  dACCESS:     124680  dHIT:     116133  dMISS:       8547  itACCESS:          0  itHIT:          0  itMISS:          0  dtACCESS:          0  dtHIT:          0  dtMISS:          0
LLC TRANSLATION  ACCESS:      75907  HIT:      34704  MISS:      41203  iACCESS:          0  iHIT:          0  iMISS:          0  dACCESS:          0  dHIT:          0  dMISS:          0  itACCESS:      13821  itHIT:       5334  itMISS:       8487  dtACCESS:      62086  dtHIT:      29370  dtMISS:      32716
LLC PREFETCH  REQUESTED:          0  ISSUED:          0  CROSSED:          0  USEFUL:          0  USELESS:          0
LLC AVERAGE iMISS LATENCY: 43.5187 cycles
LLC AVERAGE dMISS LATENCY: 103.208 cycles
LLC AVERAGE itMISS LATENCY: 1.86765 cycles
LLC AVERAGE dtMISS LATENCY: 7.64827 cycles
LLC PAGE CROSSINGS (TLB HIT):         0 
LLC PAGE CROSSINGS (TLB MISS):         0 
LLC AVERAGE MISS LATENCY: 156.243 cycles

PageTableWalker TOTAL       ACCESS:      81358  
PageTableWalker AVERAGE LATENCY: 4.42438 cycles
PageTableWalker TOTAL LATENCY: 359958 cycles

DRAM Statistics
Channel 0
 RQ ROW_BUFFER_HIT:     209093
  ROW_BUFFER_MISS:     557847
 AVG DBUS CONGESTED CYCLE:    3.62575
 WQ ROW_BUFFER_HIT:      14037
  ROW_BUFFER_MISS:      19975  FULL:          0

