last_page:0x200000000000000
VMEM_RES_CAP:0x100000
PAGE_SIZE:4096
LOG2_PAGE_SIZE:12
LOG2_PAGE_TABLE_SIZE:9
page_table_levels:5
WARNING: physical memory size is smaller than virtual memory size
FDiP enabled with aggresivity 16

*** ChampSim Multicore Out-of-Order Simulator ***

Warmup Instructions: 50000000
Simulation Instructions: 100000000
Number of CPUs: 1
Small page size: 4096
Large page size: 2097152

CPU 0 Bimodal branch predictor
Basic BTB sets: 1024 ways: 8 indirect buffer size: 4096 RAS size: 64
Instruction page size distrubution: 0
Loading instruction page size distribution from /home/bsc/bsc018186/scratch/itp_asplos25_AE/dump/srv61_ap.pdst
Data page size distrubution: 0
Loading data page size distribution from /home/bsc/bsc018186/scratch/itp_asplos25_AE/dump/srv61_ap.pdst
cpu0_L2C IP-based stride prefetcher
cpu0_L1D next line prefetcher
cpu0_STLB using iTP with max lru@8
cpu0_STLB using iTP with instr@0 and data@2
Init sat counter with 3 bits (max:50).
cpu0_L1I next line prefetcher
Off-chip DRAM Size: 4 GiB Channels: 1 Width: 64-bit Data Rate: 3200 MT/s
Heartbeat CPU 0 instructions: 10000003 cycles: 2500131 heartbeat IPC: 3.9998 cumulative IPC: 3.9998 (Simulation time: 0 hr 0 min 37 sec) 
Heartbeat CPU 0 instructions: 20000002 cycles: 5000234 heartbeat IPC: 3.99984 cumulative IPC: 3.99982 (Simulation time: 0 hr 1 min 17 sec) 
Heartbeat CPU 0 instructions: 30000001 cycles: 7500252 heartbeat IPC: 3.99998 cumulative IPC: 3.99987 (Simulation time: 0 hr 1 min 57 sec) 
Heartbeat CPU 0 instructions: 40000001 cycles: 10000363 heartbeat IPC: 3.99983 cumulative IPC: 3.99986 (Simulation time: 0 hr 2 min 37 sec) 
Heartbeat CPU 0 instructions: 50000002 cycles: 12500380 heartbeat IPC: 3.99998 cumulative IPC: 3.99988 (Simulation time: 0 hr 3 min 18 sec) 
Warmup finished CPU 0 instructions: 50000002 cycles: 12500381 cumulative IPC: 3.99988 (Simulation time: 0 hr 3 min 18 sec) 

Warmup complete CPU 0 instructions: 50000002 cycles: 12500381 (Simulation time: 0 hr 3 min 18 sec) 

Heartbeat CPU 0 instructions: 60000004 cycles: 30315668 heartbeat IPC: 0.561316 cumulative IPC: 0.561316 (Simulation time: 0 hr 4 min 26 sec) 
Heartbeat CPU 0 instructions: 70000001 cycles: 48292677 heartbeat IPC: 0.556266 cumulative IPC: 0.55878 (Simulation time: 0 hr 5 min 35 sec) 
Heartbeat CPU 0 instructions: 80000002 cycles: 66011883 heartbeat IPC: 0.56436 cumulative IPC: 0.560628 (Simulation time: 0 hr 6 min 44 sec) 
Heartbeat CPU 0 instructions: 90000000 cycles: 84025641 heartbeat IPC: 0.555132 cumulative IPC: 0.559243 (Simulation time: 0 hr 7 min 52 sec) 
Heartbeat CPU 0 instructions: 100000000 cycles: 102210735 heartbeat IPC: 0.549901 cumulative IPC: 0.55735 (Simulation time: 0 hr 9 min 1 sec) 
*** Reached end of trace: /gpfs/projects/bsc18/MN4/bsc18/romol/ChampSim/traces/qualcomm_srv/srv61_ap.champsimtrace.xz
Heartbeat CPU 0 instructions: 110000002 cycles: 120590618 heartbeat IPC: 0.544074 cumulative IPC: 0.555092 (Simulation time: 0 hr 10 min 11 sec) 
Heartbeat CPU 0 instructions: 120000000 cycles: 138742547 heartbeat IPC: 0.550906 cumulative IPC: 0.55449 (Simulation time: 0 hr 11 min 20 sec) 
Heartbeat CPU 0 instructions: 130000000 cycles: 156116764 heartbeat IPC: 0.575566 cumulative IPC: 0.55704 (Simulation time: 0 hr 12 min 28 sec) 
Heartbeat CPU 0 instructions: 140000004 cycles: 174243376 heartbeat IPC: 0.551676 cumulative IPC: 0.556439 (Simulation time: 0 hr 13 min 37 sec) 
Heartbeat CPU 0 instructions: 150000001 cycles: 191876606 heartbeat IPC: 0.567111 cumulative IPC: 0.557488 (Simulation time: 0 hr 14 min 46 sec) 
Simulation finished CPU 0 instructions: 100000004 cycles: 179376227 cumulative IPC: 0.557488 (Simulation time: 0 hr 14 min 46 sec) 

Simulation complete CPU 0 instructions: 100000004 cycles: 179376227 (Simulation time: 0 hr 14 min 46 sec) 


ChampSim completed all CPUs

Saving instructions large page distribution to /home/bsc/bsc018186/scratch/itp_asplos25_AE/dump/srv61_ap.pdst...
Saving data large page distribution to /home/bsc/bsc018186/scratch/itp_asplos25_AE/dump/srv61_ap.pdst...
=== Simulation ===
CPU 0 runs /gpfs/projects/bsc18/MN4/bsc18/romol/ChampSim/traces/qualcomm_srv/srv61_ap.champsimtrace.xz

Region of Interest Statistics

CPU 0 cumulative IPC: 0.557488 instructions: 100000004 cycles: 179376227
CPU 0 Branch Prediction Accuracy: 80.5502% MPKI: 35.0946 Average ROB Occupancy at Mispredict: 10.6314
Branch type MPKI
BRANCH_DIRECT_JUMP: 1.29426
BRANCH_INDIRECT: 17.5418
BRANCH_CONDITIONAL: 11.4374
BRANCH_DIRECT_CALL: 2.4312
BRANCH_INDIRECT_CALL: 0.68904
BRANCH_RETURN: 1.70091

Instructions large pages: 0
Instructions small pages: 5712
Large page distribution for instructions: 0%

Data large pages: 0
Data small pages: 4613
Large page distribution for data: 0%

cpu0_L1I TOTAL       ACCESS:   35616700  HIT:   27364172  MISS:    8252528  iACCESS:   35616700  iHIT:   27364172  iMISS:    8252528  dACCESS:          0  dHIT:          0  dMISS:          0  itACCESS:          0  itHIT:          0  itMISS:          0  dtACCESS:          0  dtHIT:          0  dtMISS:          0
cpu0_L1I LOAD         ACCESS:   10253796  HIT:    7992154  MISS:    2261642  iACCESS:   10253796  iHIT:    7992154  iMISS:    2261642  dACCESS:          0  dHIT:          0  dMISS:          0  itACCESS:          0  itHIT:          0  itMISS:          0  dtACCESS:          0  dtHIT:          0  dtMISS:          0
cpu0_L1I RFO          ACCESS:          0  HIT:          0  MISS:          0  iACCESS:          0  iHIT:          0  iMISS:          0  dACCESS:          0  dHIT:          0  dMISS:          0  itACCESS:          0  itHIT:          0  itMISS:          0  dtACCESS:          0  dtHIT:          0  dtMISS:          0
cpu0_L1I PREFETCH     ACCESS:   25362904  HIT:   19372018  MISS:    5990886  iACCESS:   25362904  iHIT:   19372018  iMISS:    5990886  dACCESS:          0  dHIT:          0  dMISS:          0  itACCESS:          0  itHIT:          0  itMISS:          0  dtACCESS:          0  dtHIT:          0  dtMISS:          0
cpu0_L1I WRITE        ACCESS:          0  HIT:          0  MISS:          0  iACCESS:          0  iHIT:          0  iMISS:          0  dACCESS:          0  dHIT:          0  dMISS:          0  itACCESS:          0  itHIT:          0  itMISS:          0  dtACCESS:          0  dtHIT:          0  dtMISS:          0
cpu0_L1I TRANSLATION  ACCESS:          0  HIT:          0  MISS:          0  iACCESS:          0  iHIT:          0  iMISS:          0  dACCESS:          0  dHIT:          0  dMISS:          0  itACCESS:          0  itHIT:          0  itMISS:          0  dtACCESS:          0  dtHIT:          0  dtMISS:          0
cpu0_L1I PREFETCH  REQUESTED:   27561691  ISSUED:   27558433  CROSSED:          0  USEFUL:    1958448  USELESS:     647756
cpu0_L1I AVERAGE iMISS LATENCY: 18.7144 cycles
cpu0_L1I AVERAGE dMISS LATENCY: 0 cycles
cpu0_L1I AVERAGE itMISS LATENCY: 0 cycles
cpu0_L1I AVERAGE dtMISS LATENCY: 0 cycles
cpu0_L1I PAGE CROSSINGS (TLB HIT):         0 
cpu0_L1I PAGE CROSSINGS (TLB MISS):         0 
cpu0_L1I AVERAGE MISS LATENCY: 18.7144 cycles
cpu0_ITLB TOTAL       ACCESS:   29805824  HIT:   27882036  MISS:    1923788  iACCESS:   29805824  iHIT:   27882036  iMISS:    1923788  dACCESS:          0  dHIT:          0  dMISS:          0  itACCESS:          0  itHIT:          0  itMISS:          0  dtACCESS:          0  dtHIT:          0  dtMISS:          0
cpu0_ITLB LOAD         ACCESS:   29805824  HIT:   27882036  MISS:    1923788  iACCESS:   29805824  iHIT:   27882036  iMISS:    1923788  dACCESS:          0  dHIT:          0  dMISS:          0  itACCESS:          0  itHIT:          0  itMISS:          0  dtACCESS:          0  dtHIT:          0  dtMISS:          0
cpu0_ITLB RFO          ACCESS:          0  HIT:          0  MISS:          0  iACCESS:          0  iHIT:          0  iMISS:          0  dACCESS:          0  dHIT:          0  dMISS:          0  itACCESS:          0  itHIT:          0  itMISS:          0  dtACCESS:          0  dtHIT:          0  dtMISS:          0
cpu0_ITLB PREFETCH     ACCESS:          0  HIT:          0  MISS:          0  iACCESS:          0  iHIT:          0  iMISS:          0  dACCESS:          0  dHIT:          0  dMISS:          0  itACCESS:          0  itHIT:          0  itMISS:          0  dtACCESS:          0  dtHIT:          0  dtMISS:          0
cpu0_ITLB WRITE        ACCESS:          0  HIT:          0  MISS:          0  iACCESS:          0  iHIT:          0  iMISS:          0  dACCESS:          0  dHIT:          0  dMISS:          0  itACCESS:          0  itHIT:          0  itMISS:          0  dtACCESS:          0  dtHIT:          0  dtMISS:          0
cpu0_ITLB TRANSLATION  ACCESS:          0  HIT:          0  MISS:          0  iACCESS:          0  iHIT:          0  iMISS:          0  dACCESS:          0  dHIT:          0  dMISS:          0  itACCESS:          0  itHIT:          0  itMISS:          0  dtACCESS:          0  dtHIT:          0  dtMISS:          0
cpu0_ITLB PREFETCH  REQUESTED:          0  ISSUED:          0  CROSSED:          0  USEFUL:     327892  USELESS:      60841
cpu0_ITLB AVERAGE iMISS LATENCY: 2.55765 cycles
cpu0_ITLB AVERAGE dMISS LATENCY: 0 cycles
cpu0_ITLB AVERAGE itMISS LATENCY: 0 cycles
cpu0_ITLB AVERAGE dtMISS LATENCY: 0 cycles
cpu0_ITLB PAGE CROSSINGS (TLB HIT):         0 
cpu0_ITLB PAGE CROSSINGS (TLB MISS):         0 
cpu0_ITLB AVERAGE MISS LATENCY: 2.55765 cycles
cpu0_DTLB TOTAL       ACCESS:   27980369  HIT:   26004628  MISS:    1975741  iACCESS:          0  iHIT:          0  iMISS:          0  dACCESS:   27980369  dHIT:   26004628  dMISS:    1975741  itACCESS:          0  itHIT:          0  itMISS:          0  dtACCESS:          0  dtHIT:          0  dtMISS:          0
cpu0_DTLB LOAD         ACCESS:   27980369  HIT:   26004628  MISS:    1975741  iACCESS:          0  iHIT:          0  iMISS:          0  dACCESS:   27980369  dHIT:   26004628  dMISS:    1975741  itACCESS:          0  itHIT:          0  itMISS:          0  dtACCESS:          0  dtHIT:          0  dtMISS:          0
cpu0_DTLB RFO          ACCESS:          0  HIT:          0  MISS:          0  iACCESS:          0  iHIT:          0  iMISS:          0  dACCESS:          0  dHIT:          0  dMISS:          0  itACCESS:          0  itHIT:          0  itMISS:          0  dtACCESS:          0  dtHIT:          0  dtMISS:          0
cpu0_DTLB PREFETCH     ACCESS:          0  HIT:          0  MISS:          0  iACCESS:          0  iHIT:          0  iMISS:          0  dACCESS:          0  dHIT:          0  dMISS:          0  itACCESS:          0  itHIT:          0  itMISS:          0  dtACCESS:          0  dtHIT:          0  dtMISS:          0
cpu0_DTLB WRITE        ACCESS:          0  HIT:          0  MISS:          0  iACCESS:          0  iHIT:          0  iMISS:          0  dACCESS:          0  dHIT:          0  dMISS:          0  itACCESS:          0  itHIT:          0  itMISS:          0  dtACCESS:          0  dtHIT:          0  dtMISS:          0
cpu0_DTLB TRANSLATION  ACCESS:          0  HIT:          0  MISS:          0  iACCESS:          0  iHIT:          0  iMISS:          0  dACCESS:          0  dHIT:          0  dMISS:          0  itACCESS:          0  itHIT:          0  itMISS:          0  dtACCESS:          0  dtHIT:          0  dtMISS:          0
cpu0_DTLB PREFETCH  REQUESTED:          0  ISSUED:          0  CROSSED:          0  USEFUL:          0  USELESS:          0
cpu0_DTLB AVERAGE iMISS LATENCY: 0 cycles
cpu0_DTLB AVERAGE dMISS LATENCY: 13.162 cycles
cpu0_DTLB AVERAGE itMISS LATENCY: 0 cycles
cpu0_DTLB AVERAGE dtMISS LATENCY: 0 cycles
cpu0_DTLB PAGE CROSSINGS (TLB HIT):         0 
cpu0_DTLB PAGE CROSSINGS (TLB MISS):         0 
cpu0_DTLB AVERAGE MISS LATENCY: 13.162 cycles
cpu0_STLB TOTAL       ACCESS:    1625851  HIT:    1419657  MISS:     206194  iACCESS:     388738  iHIT:     367567  iMISS:      21171  dACCESS:    1237113  dHIT:    1052090  dMISS:     185023  itACCESS:          0  itHIT:          0  itMISS:          0  dtACCESS:          0  dtHIT:          0  dtMISS:          0
cpu0_STLB LOAD         ACCESS:    1625851  HIT:    1419657  MISS:     206194  iACCESS:     388738  iHIT:     367567  iMISS:      21171  dACCESS:    1237113  dHIT:    1052090  dMISS:     185023  itACCESS:          0  itHIT:          0  itMISS:          0  dtACCESS:          0  dtHIT:          0  dtMISS:          0
cpu0_STLB RFO          ACCESS:          0  HIT:          0  MISS:          0  iACCESS:          0  iHIT:          0  iMISS:          0  dACCESS:          0  dHIT:          0  dMISS:          0  itACCESS:          0  itHIT:          0  itMISS:          0  dtACCESS:          0  dtHIT:          0  dtMISS:          0
cpu0_STLB PREFETCH     ACCESS:          0  HIT:          0  MISS:          0  iACCESS:          0  iHIT:          0  iMISS:          0  dACCESS:          0  dHIT:          0  dMISS:          0  itACCESS:          0  itHIT:          0  itMISS:          0  dtACCESS:          0  dtHIT:          0  dtMISS:          0
cpu0_STLB WRITE        ACCESS:          0  HIT:          0  MISS:          0  iACCESS:          0  iHIT:          0  iMISS:          0  dACCESS:          0  dHIT:          0  dMISS:          0  itACCESS:          0  itHIT:          0  itMISS:          0  dtACCESS:          0  dtHIT:          0  dtMISS:          0
cpu0_STLB TRANSLATION  ACCESS:          0  HIT:          0  MISS:          0  iACCESS:          0  iHIT:          0  iMISS:          0  dACCESS:          0  dHIT:          0  dMISS:          0  itACCESS:          0  itHIT:          0  itMISS:          0  dtACCESS:          0  dtHIT:          0  dtMISS:          0
cpu0_STLB PREFETCH  REQUESTED:          0  ISSUED:          0  CROSSED:          0  USEFUL:          0  USELESS:          0
cpu0_STLB AVERAGE iMISS LATENCY: 9.16568 cycles
cpu0_STLB AVERAGE dMISS LATENCY: 78.0024 cycles
cpu0_STLB AVERAGE itMISS LATENCY: 0 cycles
cpu0_STLB AVERAGE dtMISS LATENCY: 0 cycles
cpu0_STLB PAGE CROSSINGS (TLB HIT):         0 
cpu0_STLB PAGE CROSSINGS (TLB MISS):         0 
cpu0_STLB AVERAGE MISS LATENCY: 87.1681 cycles
cpu0_L1D TOTAL       ACCESS:   42389066  HIT:   38387260  MISS:    4001806  iACCESS:          0  iHIT:          0  iMISS:          0  dACCESS:   42111549  dHIT:   38370215  dMISS:    3741334  itACCESS:      24530  itHIT:       2045  itMISS:      22485  dtACCESS:     252987  dtHIT:      15000  dtMISS:     237987
cpu0_L1D LOAD         ACCESS:   19288824  HIT:   17593258  MISS:    1695566  iACCESS:          0  iHIT:          0  iMISS:          0  dACCESS:   19288824  dHIT:   17593258  dMISS:    1695566  itACCESS:          0  itHIT:          0  itMISS:          0  dtACCESS:          0  dtHIT:          0  dtMISS:          0
cpu0_L1D RFO          ACCESS:          0  HIT:          0  MISS:          0  iACCESS:          0  iHIT:          0  iMISS:          0  dACCESS:          0  dHIT:          0  dMISS:          0  itACCESS:          0  itHIT:          0  itMISS:          0  dtACCESS:          0  dtHIT:          0  dtMISS:          0
cpu0_L1D PREFETCH     ACCESS:   12663424  HIT:   11095034  MISS:    1568390  iACCESS:          0  iHIT:          0  iMISS:          0  dACCESS:   12663424  dHIT:   11095034  dMISS:    1568390  itACCESS:          0  itHIT:          0  itMISS:          0  dtACCESS:          0  dtHIT:          0  dtMISS:          0
cpu0_L1D WRITE        ACCESS:   10159301  HIT:    9681923  MISS:     477378  iACCESS:          0  iHIT:          0  iMISS:          0  dACCESS:   10159301  dHIT:    9681923  dMISS:     477378  itACCESS:          0  itHIT:          0  itMISS:          0  dtACCESS:          0  dtHIT:          0  dtMISS:          0
cpu0_L1D TRANSLATION  ACCESS:     277517  HIT:      17045  MISS:     260472  iACCESS:          0  iHIT:          0  iMISS:          0  dACCESS:          0  dHIT:          0  dMISS:          0  itACCESS:      24530  itHIT:       2045  itMISS:      22485  dtACCESS:     252987  dtHIT:      15000  dtMISS:     237987
cpu0_L1D PREFETCH  REQUESTED:   19288824  ISSUED:   17262991  CROSSED:          0  USEFUL:     311515  USELESS:     703250
cpu0_L1D AVERAGE iMISS LATENCY: 0 cycles
cpu0_L1D AVERAGE dMISS LATENCY: 39.1654 cycles
cpu0_L1D AVERAGE itMISS LATENCY: 0.417114 cycles
cpu0_L1D AVERAGE dtMISS LATENCY: 3.43346 cycles
cpu0_L1D PAGE CROSSINGS (TLB HIT):         0 
cpu0_L1D PAGE CROSSINGS (TLB MISS):         0 
cpu0_L1D AVERAGE MISS LATENCY: 43.016 cycles
cpu0_L2C TOTAL       ACCESS:    7208790  HIT:    1624032  MISS:    5584758  iACCESS:    3326690  iHIT:     814311  iMISS:    2512379  dACCESS:    3626211  dHIT:     663999  dMISS:    2962212  itACCESS:      22485  itHIT:      12543  itMISS:       9942  dtACCESS:     233404  dtHIT:     133179  dtMISS:     100225
cpu0_L2C LOAD         ACCESS:    1703974  HIT:     261990  MISS:    1441984  iACCESS:     756065  iHIT:     129132  iMISS:     626933  dACCESS:     947909  dHIT:     132858  dMISS:     815051  itACCESS:          0  itHIT:          0  itMISS:          0  dtACCESS:          0  dtHIT:          0  dtMISS:          0
cpu0_L2C RFO          ACCESS:     166108  HIT:      43484  MISS:     122624  iACCESS:          0  iHIT:          0  iMISS:          0  dACCESS:     166108  dHIT:      43484  dMISS:     122624  itACCESS:          0  itHIT:          0  itMISS:          0  dtACCESS:          0  dtHIT:          0  dtMISS:          0
cpu0_L2C PREFETCH     ACCESS:    4805808  HIT:    1047854  MISS:    3757954  iACCESS:    2570625  iHIT:     685179  iMISS:    1885446  dACCESS:    2235183  dHIT:     362675  dMISS:    1872508  itACCESS:          0  itHIT:          0  itMISS:          0  dtACCESS:          0  dtHIT:          0  dtMISS:          0
cpu0_L2C WRITE        ACCESS:     277011  HIT:     124982  MISS:     152029  iACCESS:          0  iHIT:          0  iMISS:          0  dACCESS:     277011  dHIT:     124982  dMISS:     152029  itACCESS:          0  itHIT:          0  itMISS:          0  dtACCESS:          0  dtHIT:          0  dtMISS:          0
cpu0_L2C TRANSLATION  ACCESS:     255889  HIT:     145722  MISS:     110167  iACCESS:          0  iHIT:          0  iMISS:          0  dACCESS:          0  dHIT:          0  dMISS:          0  itACCESS:      22485  itHIT:      12543  itMISS:       9942  dtACCESS:     233404  dtHIT:     133179  dtMISS:     100225
cpu0_L2C PREFETCH  REQUESTED:    1475180  ISSUED:    1475178  CROSSED:          0  USEFUL:     406896  USELESS:     427197
cpu0_L2C AVERAGE iMISS LATENCY: 22.402 cycles
cpu0_L2C AVERAGE dMISS LATENCY: 35.4045 cycles
cpu0_L2C AVERAGE itMISS LATENCY: 0.260745 cycles
cpu0_L2C AVERAGE dtMISS LATENCY: 2.06443 cycles
cpu0_L2C PAGE CROSSINGS (TLB HIT):         0 
cpu0_L2C PAGE CROSSINGS (TLB MISS):         0 
cpu0_L2C AVERAGE MISS LATENCY: 60.1316 cycles
LLC TOTAL       ACCESS:    5411142  HIT:    3909276  MISS:    1501866  iACCESS:    2440673  iHIT:    1906177  iMISS:     534496  dACCESS:    2860302  dHIT:    1952598  dMISS:     907704  itACCESS:       9942  itHIT:       2785  itMISS:       7157  dtACCESS:     100225  dtHIT:      47716  dtMISS:      52509
LLC LOAD         ACCESS:    1436507  HIT:    1106986  MISS:     329521  iACCESS:     625476  iHIT:     515863  iMISS:     109613  dACCESS:     811031  dHIT:     591123  dMISS:     219908  itACCESS:          0  itHIT:          0  itMISS:          0  dtACCESS:          0  dtHIT:          0  dtMISS:          0
LLC RFO          ACCESS:     122609  HIT:      64489  MISS:      58120  iACCESS:          0  iHIT:          0  iMISS:          0  dACCESS:     122609  dHIT:      64489  dMISS:      58120  itACCESS:          0  itHIT:          0  itMISS:          0  dtACCESS:          0  dtHIT:          0  dtMISS:          0
LLC PREFETCH     ACCESS:    3592581  HIT:    2548927  MISS:    1043654  iACCESS:    1815197  iHIT:    1390314  iMISS:     424883  dACCESS:    1777384  dHIT:    1158613  dMISS:     618771  itACCESS:          0  itHIT:          0  itMISS:          0  dtACCESS:          0  dtHIT:          0  dtMISS:          0
LLC WRITE        ACCESS:     149278  HIT:     138373  MISS:      10905  iACCESS:          0  iHIT:          0  iMISS:          0  dACCESS:     149278  dHIT:     138373  dMISS:      10905  itACCESS:          0  itHIT:          0  itMISS:          0  dtACCESS:          0  dtHIT:          0  dtMISS:          0
LLC TRANSLATION  ACCESS:     110167  HIT:      50501  MISS:      59666  iACCESS:          0  iHIT:          0  iMISS:          0  dACCESS:          0  dHIT:          0  dMISS:          0  itACCESS:       9942  itHIT:       2785  itMISS:       7157  dtACCESS:     100225  dtHIT:      47716  dtMISS:      52509
LLC PREFETCH  REQUESTED:          0  ISSUED:          0  CROSSED:          0  USEFUL:          0  USELESS:          0
LLC AVERAGE iMISS LATENCY: 51.8431 cycles
LLC AVERAGE dMISS LATENCY: 97.4211 cycles
LLC AVERAGE itMISS LATENCY: 0.839425 cycles
LLC AVERAGE dtMISS LATENCY: 6.37452 cycles
LLC PAGE CROSSINGS (TLB HIT):         0 
LLC PAGE CROSSINGS (TLB MISS):         0 
LLC AVERAGE MISS LATENCY: 156.479 cycles

PageTableWalker TOTAL       ACCESS:      97729  
PageTableWalker AVERAGE LATENCY: 4.47517 cycles
PageTableWalker TOTAL LATENCY: 437353 cycles

DRAM Statistics
Channel 0
 RQ ROW_BUFFER_HIT:     451890
  ROW_BUFFER_MISS:    1030241
 AVG DBUS CONGESTED CYCLE:    3.63593
 WQ ROW_BUFFER_HIT:      30146
  ROW_BUFFER_MISS:      25022  FULL:          0

