last_page:0x200000000000000
VMEM_RES_CAP:0x100000
PAGE_SIZE:4096
LOG2_PAGE_SIZE:12
LOG2_PAGE_TABLE_SIZE:9
page_table_levels:5
WARNING: physical memory size is smaller than virtual memory size
FDiP enabled with aggresivity 16

*** ChampSim Multicore Out-of-Order Simulator ***

Warmup Instructions: 50000000
Simulation Instructions: 100000000
Number of CPUs: 1
Small page size: 4096
Large page size: 2097152

CPU 0 Bimodal branch predictor
Basic BTB sets: 1024 ways: 8 indirect buffer size: 4096 RAS size: 64
Instruction page size distrubution: 0
Loading instruction page size distribution from /home/bsc/bsc018186/scratch/itp_asplos25_AE/dump/srv623_ap.pdst
Data page size distrubution: 0
Loading data page size distribution from /home/bsc/bsc018186/scratch/itp_asplos25_AE/dump/srv623_ap.pdst
cpu0_L2C IP-based stride prefetcher
cpu0_L1D next line prefetcher
CHiRPing...
cpu0_L1I next line prefetcher
Off-chip DRAM Size: 4 GiB Channels: 1 Width: 64-bit Data Rate: 3200 MT/s
Heartbeat CPU 0 instructions: 10000000 cycles: 2500338 heartbeat IPC: 3.99946 cumulative IPC: 3.99946 (Simulation time: 0 hr 0 min 39 sec) 
Heartbeat CPU 0 instructions: 20000001 cycles: 5000498 heartbeat IPC: 3.99975 cumulative IPC: 3.99961 (Simulation time: 0 hr 1 min 19 sec) 
Heartbeat CPU 0 instructions: 30000001 cycles: 7500645 heartbeat IPC: 3.99977 cumulative IPC: 3.99966 (Simulation time: 0 hr 2 min 0 sec) 
Heartbeat CPU 0 instructions: 40000002 cycles: 10000932 heartbeat IPC: 3.99955 cumulative IPC: 3.99963 (Simulation time: 0 hr 2 min 41 sec) 
Heartbeat CPU 0 instructions: 50000000 cycles: 12501253 heartbeat IPC: 3.99949 cumulative IPC: 3.9996 (Simulation time: 0 hr 3 min 22 sec) 
Warmup finished CPU 0 instructions: 50000000 cycles: 12501254 cumulative IPC: 3.9996 (Simulation time: 0 hr 3 min 22 sec) 

Warmup complete CPU 0 instructions: 50000000 cycles: 12501254 (Simulation time: 0 hr 3 min 22 sec) 

Heartbeat CPU 0 instructions: 60000000 cycles: 27724901 heartbeat IPC: 0.656873 cumulative IPC: 0.656873 (Simulation time: 0 hr 4 min 29 sec) 
Heartbeat CPU 0 instructions: 70000000 cycles: 43595299 heartbeat IPC: 0.630104 cumulative IPC: 0.64321 (Simulation time: 0 hr 5 min 37 sec) 
Heartbeat CPU 0 instructions: 80000000 cycles: 59748185 heartbeat IPC: 0.619085 cumulative IPC: 0.634962 (Simulation time: 0 hr 6 min 47 sec) 
Heartbeat CPU 0 instructions: 90000000 cycles: 74284345 heartbeat IPC: 0.68794 cumulative IPC: 0.647427 (Simulation time: 0 hr 7 min 53 sec) 
Heartbeat CPU 0 instructions: 100000001 cycles: 89308803 heartbeat IPC: 0.665582 cumulative IPC: 0.650978 (Simulation time: 0 hr 9 min 2 sec) 
*** Reached end of trace: /gpfs/projects/bsc18/MN4/bsc18/romol/ChampSim/traces/qualcomm_srv/srv623_ap.champsimtrace.xz
Heartbeat CPU 0 instructions: 110000001 cycles: 104656547 heartbeat IPC: 0.651562 cumulative IPC: 0.651075 (Simulation time: 0 hr 10 min 9 sec) 
Heartbeat CPU 0 instructions: 120000002 cycles: 120649147 heartbeat IPC: 0.62529 cumulative IPC: 0.647262 (Simulation time: 0 hr 11 min 16 sec) 
Heartbeat CPU 0 instructions: 130000002 cycles: 135340795 heartbeat IPC: 0.680659 cumulative IPC: 0.651257 (Simulation time: 0 hr 12 min 22 sec) 
Heartbeat CPU 0 instructions: 140000000 cycles: 151214214 heartbeat IPC: 0.629984 cumulative IPC: 0.648822 (Simulation time: 0 hr 13 min 29 sec) 
Heartbeat CPU 0 instructions: 150000000 cycles: 166318984 heartbeat IPC: 0.662043 cumulative IPC: 0.650121 (Simulation time: 0 hr 14 min 34 sec) 
Simulation finished CPU 0 instructions: 100000000 cycles: 153817731 cumulative IPC: 0.650121 (Simulation time: 0 hr 14 min 34 sec) 

Simulation complete CPU 0 instructions: 100000000 cycles: 153817731 (Simulation time: 0 hr 14 min 34 sec) 


ChampSim completed all CPUs

Saving instructions large page distribution to /home/bsc/bsc018186/scratch/itp_asplos25_AE/dump/srv623_ap.pdst...
Saving data large page distribution to /home/bsc/bsc018186/scratch/itp_asplos25_AE/dump/srv623_ap.pdst...
=== Simulation ===
CPU 0 runs /gpfs/projects/bsc18/MN4/bsc18/romol/ChampSim/traces/qualcomm_srv/srv623_ap.champsimtrace.xz

Region of Interest Statistics

CPU 0 cumulative IPC: 0.650121 instructions: 100000000 cycles: 153817731
CPU 0 Branch Prediction Accuracy: 83.4241% MPKI: 29.6363 Average ROB Occupancy at Mispredict: 12.77
Branch type MPKI
BRANCH_DIRECT_JUMP: 1.01919
BRANCH_INDIRECT: 15.269
BRANCH_CONDITIONAL: 9.6814
BRANCH_DIRECT_CALL: 1.8327
BRANCH_INDIRECT_CALL: 0.503631
BRANCH_RETURN: 1.33037

Instructions large pages: 0
Instructions small pages: 11492
Large page distribution for instructions: 0%

Data large pages: 0
Data small pages: 10479
Large page distribution for data: 0%

cpu0_L1I TOTAL       ACCESS:   34683397  HIT:   26903661  MISS:    7779736  iACCESS:   34683397  iHIT:   26903661  iMISS:    7779736  dACCESS:          0  dHIT:          0  dMISS:          0  itACCESS:          0  itHIT:          0  itMISS:          0  dtACCESS:          0  dtHIT:          0  dtMISS:          0
cpu0_L1I LOAD         ACCESS:   10195681  HIT:    8001016  MISS:    2194665  iACCESS:   10195681  iHIT:    8001016  iMISS:    2194665  dACCESS:          0  dHIT:          0  dMISS:          0  itACCESS:          0  itHIT:          0  itMISS:          0  dtACCESS:          0  dtHIT:          0  dtMISS:          0
cpu0_L1I RFO          ACCESS:          0  HIT:          0  MISS:          0  iACCESS:          0  iHIT:          0  iMISS:          0  dACCESS:          0  dHIT:          0  dMISS:          0  itACCESS:          0  itHIT:          0  itMISS:          0  dtACCESS:          0  dtHIT:          0  dtMISS:          0
cpu0_L1I PREFETCH     ACCESS:   24487716  HIT:   18902645  MISS:    5585071  iACCESS:   24487716  iHIT:   18902645  iMISS:    5585071  dACCESS:          0  dHIT:          0  dMISS:          0  itACCESS:          0  itHIT:          0  itMISS:          0  dtACCESS:          0  dtHIT:          0  dtMISS:          0
cpu0_L1I WRITE        ACCESS:          0  HIT:          0  MISS:          0  iACCESS:          0  iHIT:          0  iMISS:          0  dACCESS:          0  dHIT:          0  dMISS:          0  itACCESS:          0  itHIT:          0  itMISS:          0  dtACCESS:          0  dtHIT:          0  dtMISS:          0
cpu0_L1I TRANSLATION  ACCESS:          0  HIT:          0  MISS:          0  iACCESS:          0  iHIT:          0  iMISS:          0  dACCESS:          0  dHIT:          0  dMISS:          0  itACCESS:          0  itHIT:          0  itMISS:          0  dtACCESS:          0  dtHIT:          0  dtMISS:          0
cpu0_L1I PREFETCH  REQUESTED:   27073521  ISSUED:   27073521  CROSSED:          0  USEFUL:    1883757  USELESS:     625651
cpu0_L1I AVERAGE iMISS LATENCY: 13.1756 cycles
cpu0_L1I AVERAGE dMISS LATENCY: 0 cycles
cpu0_L1I AVERAGE itMISS LATENCY: 0 cycles
cpu0_L1I AVERAGE dtMISS LATENCY: 0 cycles
cpu0_L1I PAGE CROSSINGS (TLB HIT):         0 
cpu0_L1I PAGE CROSSINGS (TLB MISS):         0 
cpu0_L1I AVERAGE MISS LATENCY: 13.1756 cycles
cpu0_ITLB TOTAL       ACCESS:   28968363  HIT:   26980741  MISS:    1987622  iACCESS:   28968363  iHIT:   26980741  iMISS:    1987622  dACCESS:          0  dHIT:          0  dMISS:          0  itACCESS:          0  itHIT:          0  itMISS:          0  dtACCESS:          0  dtHIT:          0  dtMISS:          0
cpu0_ITLB LOAD         ACCESS:   28968363  HIT:   26980741  MISS:    1987622  iACCESS:   28968363  iHIT:   26980741  iMISS:    1987622  dACCESS:          0  dHIT:          0  dMISS:          0  itACCESS:          0  itHIT:          0  itMISS:          0  dtACCESS:          0  dtHIT:          0  dtMISS:          0
cpu0_ITLB RFO          ACCESS:          0  HIT:          0  MISS:          0  iACCESS:          0  iHIT:          0  iMISS:          0  dACCESS:          0  dHIT:          0  dMISS:          0  itACCESS:          0  itHIT:          0  itMISS:          0  dtACCESS:          0  dtHIT:          0  dtMISS:          0
cpu0_ITLB PREFETCH     ACCESS:          0  HIT:          0  MISS:          0  iACCESS:          0  iHIT:          0  iMISS:          0  dACCESS:          0  dHIT:          0  dMISS:          0  itACCESS:          0  itHIT:          0  itMISS:          0  dtACCESS:          0  dtHIT:          0  dtMISS:          0
cpu0_ITLB WRITE        ACCESS:          0  HIT:          0  MISS:          0  iACCESS:          0  iHIT:          0  iMISS:          0  dACCESS:          0  dHIT:          0  dMISS:          0  itACCESS:          0  itHIT:          0  itMISS:          0  dtACCESS:          0  dtHIT:          0  dtMISS:          0
cpu0_ITLB TRANSLATION  ACCESS:          0  HIT:          0  MISS:          0  iACCESS:          0  iHIT:          0  iMISS:          0  dACCESS:          0  dHIT:          0  dMISS:          0  itACCESS:          0  itHIT:          0  itMISS:          0  dtACCESS:          0  dtHIT:          0  dtMISS:          0
cpu0_ITLB PREFETCH  REQUESTED:          0  ISSUED:          0  CROSSED:          0  USEFUL:     320285  USELESS:      67460
cpu0_ITLB AVERAGE iMISS LATENCY: 5.30684 cycles
cpu0_ITLB AVERAGE dMISS LATENCY: 0 cycles
cpu0_ITLB AVERAGE itMISS LATENCY: 0 cycles
cpu0_ITLB AVERAGE dtMISS LATENCY: 0 cycles
cpu0_ITLB PAGE CROSSINGS (TLB HIT):         0 
cpu0_ITLB PAGE CROSSINGS (TLB MISS):         0 
cpu0_ITLB AVERAGE MISS LATENCY: 5.30684 cycles
cpu0_DTLB TOTAL       ACCESS:   27696455  HIT:   25625620  MISS:    2070835  iACCESS:          0  iHIT:          0  iMISS:          0  dACCESS:   27696455  dHIT:   25625620  dMISS:    2070835  itACCESS:          0  itHIT:          0  itMISS:          0  dtACCESS:          0  dtHIT:          0  dtMISS:          0
cpu0_DTLB LOAD         ACCESS:   27696455  HIT:   25625620  MISS:    2070835  iACCESS:          0  iHIT:          0  iMISS:          0  dACCESS:   27696455  dHIT:   25625620  dMISS:    2070835  itACCESS:          0  itHIT:          0  itMISS:          0  dtACCESS:          0  dtHIT:          0  dtMISS:          0
cpu0_DTLB RFO          ACCESS:          0  HIT:          0  MISS:          0  iACCESS:          0  iHIT:          0  iMISS:          0  dACCESS:          0  dHIT:          0  dMISS:          0  itACCESS:          0  itHIT:          0  itMISS:          0  dtACCESS:          0  dtHIT:          0  dtMISS:          0
cpu0_DTLB PREFETCH     ACCESS:          0  HIT:          0  MISS:          0  iACCESS:          0  iHIT:          0  iMISS:          0  dACCESS:          0  dHIT:          0  dMISS:          0  itACCESS:          0  itHIT:          0  itMISS:          0  dtACCESS:          0  dtHIT:          0  dtMISS:          0
cpu0_DTLB WRITE        ACCESS:          0  HIT:          0  MISS:          0  iACCESS:          0  iHIT:          0  iMISS:          0  dACCESS:          0  dHIT:          0  dMISS:          0  itACCESS:          0  itHIT:          0  itMISS:          0  dtACCESS:          0  dtHIT:          0  dtMISS:          0
cpu0_DTLB TRANSLATION  ACCESS:          0  HIT:          0  MISS:          0  iACCESS:          0  iHIT:          0  iMISS:          0  dACCESS:          0  dHIT:          0  dMISS:          0  itACCESS:          0  itHIT:          0  itMISS:          0  dtACCESS:          0  dtHIT:          0  dtMISS:          0
cpu0_DTLB PREFETCH  REQUESTED:          0  ISSUED:          0  CROSSED:          0  USEFUL:          0  USELESS:          0
cpu0_DTLB AVERAGE iMISS LATENCY: 0 cycles
cpu0_DTLB AVERAGE dMISS LATENCY: 14.5844 cycles
cpu0_DTLB AVERAGE itMISS LATENCY: 0 cycles
cpu0_DTLB AVERAGE dtMISS LATENCY: 0 cycles
cpu0_DTLB PAGE CROSSINGS (TLB HIT):         0 
cpu0_DTLB PAGE CROSSINGS (TLB MISS):         0 
cpu0_DTLB AVERAGE MISS LATENCY: 14.5844 cycles
cpu0_STLB TOTAL       ACCESS:    1613692  HIT:    1440531  MISS:     173161  iACCESS:     387749  iHIT:     325052  iMISS:      62697  dACCESS:    1225943  dHIT:    1115479  dMISS:     110464  itACCESS:          0  itHIT:          0  itMISS:          0  dtACCESS:          0  dtHIT:          0  dtMISS:          0
cpu0_STLB LOAD         ACCESS:    1613692  HIT:    1440531  MISS:     173161  iACCESS:     387749  iHIT:     325052  iMISS:      62697  dACCESS:    1225943  dHIT:    1115479  dMISS:     110464  itACCESS:          0  itHIT:          0  itMISS:          0  dtACCESS:          0  dtHIT:          0  dtMISS:          0
cpu0_STLB RFO          ACCESS:          0  HIT:          0  MISS:          0  iACCESS:          0  iHIT:          0  iMISS:          0  dACCESS:          0  dHIT:          0  dMISS:          0  itACCESS:          0  itHIT:          0  itMISS:          0  dtACCESS:          0  dtHIT:          0  dtMISS:          0
cpu0_STLB PREFETCH     ACCESS:          0  HIT:          0  MISS:          0  iACCESS:          0  iHIT:          0  iMISS:          0  dACCESS:          0  dHIT:          0  dMISS:          0  itACCESS:          0  itHIT:          0  itMISS:          0  dtACCESS:          0  dtHIT:          0  dtMISS:          0
cpu0_STLB WRITE        ACCESS:          0  HIT:          0  MISS:          0  iACCESS:          0  iHIT:          0  iMISS:          0  dACCESS:          0  dHIT:          0  dMISS:          0  itACCESS:          0  itHIT:          0  itMISS:          0  dtACCESS:          0  dtHIT:          0  dtMISS:          0
cpu0_STLB TRANSLATION  ACCESS:          0  HIT:          0  MISS:          0  iACCESS:          0  iHIT:          0  iMISS:          0  dACCESS:          0  dHIT:          0  dMISS:          0  itACCESS:          0  itHIT:          0  itMISS:          0  dtACCESS:          0  dtHIT:          0  dtMISS:          0
cpu0_STLB PREFETCH  REQUESTED:          0  ISSUED:          0  CROSSED:          0  USEFUL:          0  USELESS:          0
cpu0_STLB AVERAGE iMISS LATENCY: 43.1805 cycles
cpu0_STLB AVERAGE dMISS LATENCY: 117.93 cycles
cpu0_STLB AVERAGE itMISS LATENCY: 0 cycles
cpu0_STLB AVERAGE dtMISS LATENCY: 0 cycles
cpu0_STLB PAGE CROSSINGS (TLB HIT):         0 
cpu0_STLB PAGE CROSSINGS (TLB MISS):         0 
cpu0_STLB AVERAGE MISS LATENCY: 161.11 cycles
cpu0_L1D TOTAL       ACCESS:   41464320  HIT:   38018448  MISS:    3445872  iACCESS:          0  iHIT:          0  iMISS:          0  dACCESS:   41229269  dHIT:   37997271  dMISS:    3231998  itACCESS:      68181  itHIT:       9917  itMISS:      58264  dtACCESS:     166870  dtHIT:      11260  dtMISS:     155610
cpu0_L1D LOAD         ACCESS:   18895465  HIT:   17426441  MISS:    1469024  iACCESS:          0  iHIT:          0  iMISS:          0  dACCESS:   18895465  dHIT:   17426441  dMISS:    1469024  itACCESS:          0  itHIT:          0  itMISS:          0  dtACCESS:          0  dtHIT:          0  dtMISS:          0
cpu0_L1D RFO          ACCESS:          0  HIT:          0  MISS:          0  iACCESS:          0  iHIT:          0  iMISS:          0  dACCESS:          0  dHIT:          0  dMISS:          0  itACCESS:          0  itHIT:          0  itMISS:          0  dtACCESS:          0  dtHIT:          0  dtMISS:          0
cpu0_L1D PREFETCH     ACCESS:   12145529  HIT:   10822349  MISS:    1323180  iACCESS:          0  iHIT:          0  iMISS:          0  dACCESS:   12145529  dHIT:   10822349  dMISS:    1323180  itACCESS:          0  itHIT:          0  itMISS:          0  dtACCESS:          0  dtHIT:          0  dtMISS:          0
cpu0_L1D WRITE        ACCESS:   10188275  HIT:    9748481  MISS:     439794  iACCESS:          0  iHIT:          0  iMISS:          0  dACCESS:   10188275  dHIT:    9748481  dMISS:     439794  itACCESS:          0  itHIT:          0  itMISS:          0  dtACCESS:          0  dtHIT:          0  dtMISS:          0
cpu0_L1D TRANSLATION  ACCESS:     235051  HIT:      21177  MISS:     213874  iACCESS:          0  iHIT:          0  iMISS:          0  dACCESS:          0  dHIT:          0  dMISS:          0  itACCESS:      68181  itHIT:       9917  itMISS:      58264  dtACCESS:     166870  dtHIT:      11260  dtMISS:     155610
cpu0_L1D PREFETCH  REQUESTED:   18895465  ISSUED:   17000073  CROSSED:          0  USEFUL:     303626  USELESS:     696125
cpu0_L1D AVERAGE iMISS LATENCY: 0 cycles
cpu0_L1D AVERAGE dMISS LATENCY: 33.093 cycles
cpu0_L1D AVERAGE itMISS LATENCY: 2.01259 cycles
cpu0_L1D AVERAGE dtMISS LATENCY: 5.15802 cycles
cpu0_L1D PAGE CROSSINGS (TLB HIT):         0 
cpu0_L1D PAGE CROSSINGS (TLB MISS):         0 
cpu0_L1D AVERAGE MISS LATENCY: 40.2636 cycles
cpu0_L2C TOTAL       ACCESS:    6898859  HIT:    4021066  MISS:    2877793  iACCESS:    3268715  iHIT:    2193167  iMISS:    1075548  dACCESS:    3426074  dHIT:    1795247  dMISS:    1630827  itACCESS:      58264  itHIT:      10732  itMISS:      47532  dtACCESS:     145806  dtHIT:      21920  dtMISS:     123886
cpu0_L2C LOAD         ACCESS:    1718648  HIT:    1038311  MISS:     680337  iACCESS:     793586  iHIT:     559400  iMISS:     234186  dACCESS:     925062  dHIT:     478911  dMISS:     446151  itACCESS:          0  itHIT:          0  itMISS:          0  dtACCESS:          0  dtHIT:          0  dtMISS:          0
cpu0_L2C RFO          ACCESS:     156018  HIT:      71939  MISS:      84079  iACCESS:          0  iHIT:          0  iMISS:          0  dACCESS:     156018  dHIT:      71939  dMISS:      84079  itACCESS:          0  itHIT:          0  itMISS:          0  dtACCESS:          0  dtHIT:          0  dtMISS:          0
cpu0_L2C PREFETCH     ACCESS:    4536841  HIT:    2595643  MISS:    1941198  iACCESS:    2475129  iHIT:    1633767  iMISS:     841362  dACCESS:    2061712  dHIT:     961876  dMISS:    1099836  itACCESS:          0  itHIT:          0  itMISS:          0  dtACCESS:          0  dtHIT:          0  dtMISS:          0
cpu0_L2C WRITE        ACCESS:     283282  HIT:     282521  MISS:        761  iACCESS:          0  iHIT:          0  iMISS:          0  dACCESS:     283282  dHIT:     282521  dMISS:        761  itACCESS:          0  itHIT:          0  itMISS:          0  dtACCESS:          0  dtHIT:          0  dtMISS:          0
cpu0_L2C TRANSLATION  ACCESS:     204070  HIT:      32652  MISS:     171418  iACCESS:          0  iHIT:          0  iMISS:          0  dACCESS:          0  dHIT:          0  dMISS:          0  itACCESS:      58264  itHIT:      10732  itMISS:      47532  dtACCESS:     145806  dtHIT:      21920  dtMISS:     123886
cpu0_L2C PREFETCH  REQUESTED:    1307548  ISSUED:    1307548  CROSSED:          0  USEFUL:     303430  USELESS:     221938
cpu0_L2C AVERAGE iMISS LATENCY: 25.5449 cycles
cpu0_L2C AVERAGE dMISS LATENCY: 46.4811 cycles
cpu0_L2C AVERAGE itMISS LATENCY: 2.21064 cycles
cpu0_L2C AVERAGE dtMISS LATENCY: 5.67337 cycles
cpu0_L2C PAGE CROSSINGS (TLB HIT):         0 
cpu0_L2C PAGE CROSSINGS (TLB MISS):         0 
cpu0_L2C AVERAGE MISS LATENCY: 79.9099 cycles
LLC TOTAL       ACCESS:    2907257  HIT:    1787875  MISS:    1119382  iACCESS:    1023255  iHIT:     660591  iMISS:     362664  dACCESS:    1712584  dHIT:    1065136  dMISS:     647448  itACCESS:      47532  itHIT:      16028  itMISS:      31504  dtACCESS:     123886  dtHIT:      46120  dtMISS:      77766
LLC LOAD         ACCESS:     679111  HIT:     434898  MISS:     244213  iACCESS:     233261  iHIT:     154211  iMISS:      79050  dACCESS:     445850  dHIT:     280687  dMISS:     165163  itACCESS:          0  itHIT:          0  itMISS:          0  dtACCESS:          0  dtHIT:          0  dtMISS:          0
LLC RFO          ACCESS:      84075  HIT:      45334  MISS:      38741  iACCESS:          0  iHIT:          0  iMISS:          0  dACCESS:      84075  dHIT:      45334  dMISS:      38741  itACCESS:          0  itHIT:          0  itMISS:          0  dtACCESS:          0  dtHIT:          0  dtMISS:          0
LLC PREFETCH     ACCESS:    1837405  HIT:    1116474  MISS:     720931  iACCESS:     789994  iHIT:     506380  iMISS:     283614  dACCESS:    1047411  dHIT:     610094  dMISS:     437317  itACCESS:          0  itHIT:          0  itMISS:          0  dtACCESS:          0  dtHIT:          0  dtMISS:          0
LLC WRITE        ACCESS:     135248  HIT:     129021  MISS:       6227  iACCESS:          0  iHIT:          0  iMISS:          0  dACCESS:     135248  dHIT:     129021  dMISS:       6227  itACCESS:          0  itHIT:          0  itMISS:          0  dtACCESS:          0  dtHIT:          0  dtMISS:          0
LLC TRANSLATION  ACCESS:     171418  HIT:      62148  MISS:     109270  iACCESS:          0  iHIT:          0  iMISS:          0  dACCESS:          0  dHIT:          0  dMISS:          0  itACCESS:      47532  itHIT:      16028  itMISS:      31504  dtACCESS:     123886  dtHIT:      46120  dtMISS:      77766
LLC PREFETCH  REQUESTED:          0  ISSUED:          0  CROSSED:          0  USEFUL:          0  USELESS:          0
LLC AVERAGE iMISS LATENCY: 47.8963 cycles
LLC AVERAGE dMISS LATENCY: 92.3031 cycles
LLC AVERAGE itMISS LATENCY: 4.85026 cycles
LLC AVERAGE dtMISS LATENCY: 12.4201 cycles
LLC PAGE CROSSINGS (TLB HIT):         0 
LLC PAGE CROSSINGS (TLB MISS):         0 
LLC AVERAGE MISS LATENCY: 157.47 cycles

PageTableWalker TOTAL       ACCESS:      88879  
PageTableWalker AVERAGE LATENCY: 5.17623 cycles
PageTableWalker TOTAL LATENCY: 460058 cycles

DRAM Statistics
Channel 0
 RQ ROW_BUFFER_HIT:     298367
  ROW_BUFFER_MISS:     814596
 AVG DBUS CONGESTED CYCLE:    3.61958
 WQ ROW_BUFFER_HIT:      22916
  ROW_BUFFER_MISS:      21490  FULL:          0

