last_page:0x200000000000000
VMEM_RES_CAP:0x100000
PAGE_SIZE:4096
LOG2_PAGE_SIZE:12
LOG2_PAGE_TABLE_SIZE:9
page_table_levels:5
WARNING: physical memory size is smaller than virtual memory size
FDiP enabled with aggresivity 16

*** ChampSim Multicore Out-of-Order Simulator ***

Warmup Instructions: 50000000
Simulation Instructions: 100000000
Number of CPUs: 1
Small page size: 4096
Large page size: 2097152

CPU 0 Bimodal branch predictor
Basic BTB sets: 1024 ways: 8 indirect buffer size: 4096 RAS size: 64
Instruction page size distrubution: 0
Loading instruction page size distribution from /home/bsc/bsc018186/scratch/itp_asplos25_AE/dump/srv609_ap.pdst
Data page size distrubution: 0
Loading data page size distribution from /home/bsc/bsc018186/scratch/itp_asplos25_AE/dump/srv609_ap.pdst
cpu0_L2C IP-based stride prefetcher
cpu0_L1D next line prefetcher
cpu0_STLB using iTP with max lru@8
cpu0_STLB using iTP with instr@0 and data@2
Init sat counter with 3 bits (max:50).
cpu0_L1I next line prefetcher
Off-chip DRAM Size: 4 GiB Channels: 1 Width: 64-bit Data Rate: 3200 MT/s
Heartbeat CPU 0 instructions: 10000002 cycles: 2500289 heartbeat IPC: 3.99954 cumulative IPC: 3.99954 (Simulation time: 0 hr 0 min 37 sec) 
Heartbeat CPU 0 instructions: 20000002 cycles: 5000390 heartbeat IPC: 3.99984 cumulative IPC: 3.99969 (Simulation time: 0 hr 1 min 15 sec) 
Heartbeat CPU 0 instructions: 30000002 cycles: 7500521 heartbeat IPC: 3.9998 cumulative IPC: 3.99973 (Simulation time: 0 hr 1 min 55 sec) 
Heartbeat CPU 0 instructions: 40000003 cycles: 10002144 heartbeat IPC: 3.99741 cumulative IPC: 3.99915 (Simulation time: 0 hr 2 min 35 sec) 
Heartbeat CPU 0 instructions: 50000003 cycles: 12502145 heartbeat IPC: 4 cumulative IPC: 3.99932 (Simulation time: 0 hr 3 min 15 sec) 
Warmup finished CPU 0 instructions: 50000003 cycles: 12502146 cumulative IPC: 3.99932 (Simulation time: 0 hr 3 min 15 sec) 

Warmup complete CPU 0 instructions: 50000003 cycles: 12502146 (Simulation time: 0 hr 3 min 15 sec) 

Heartbeat CPU 0 instructions: 60000000 cycles: 27334981 heartbeat IPC: 0.67418 cumulative IPC: 0.67418 (Simulation time: 0 hr 4 min 19 sec) 
Heartbeat CPU 0 instructions: 70000002 cycles: 41948977 heartbeat IPC: 0.684276 cumulative IPC: 0.679191 (Simulation time: 0 hr 5 min 22 sec) 
Heartbeat CPU 0 instructions: 80000001 cycles: 56526669 heartbeat IPC: 0.68598 cumulative IPC: 0.681439 (Simulation time: 0 hr 6 min 25 sec) 
Heartbeat CPU 0 instructions: 90000001 cycles: 72407505 heartbeat IPC: 0.62969 cumulative IPC: 0.66772 (Simulation time: 0 hr 7 min 30 sec) 
Heartbeat CPU 0 instructions: 100000004 cycles: 87314228 heartbeat IPC: 0.670839 cumulative IPC: 0.668342 (Simulation time: 0 hr 8 min 34 sec) 
*** Reached end of trace: /gpfs/projects/bsc18/MN4/bsc18/romol/ChampSim/traces/qualcomm_srv/srv609_ap.champsimtrace.xz
Heartbeat CPU 0 instructions: 110000002 cycles: 102921322 heartbeat IPC: 0.640735 cumulative IPC: 0.663577 (Simulation time: 0 hr 9 min 38 sec) 
Heartbeat CPU 0 instructions: 120000002 cycles: 117958204 heartbeat IPC: 0.665032 cumulative IPC: 0.663784 (Simulation time: 0 hr 10 min 43 sec) 
Heartbeat CPU 0 instructions: 130000000 cycles: 133582789 heartbeat IPC: 0.640017 cumulative IPC: 0.660717 (Simulation time: 0 hr 11 min 49 sec) 
Heartbeat CPU 0 instructions: 140000001 cycles: 149518434 heartbeat IPC: 0.627525 cumulative IPC: 0.656857 (Simulation time: 0 hr 12 min 54 sec) 
Heartbeat CPU 0 instructions: 150000000 cycles: 163626752 heartbeat IPC: 0.708802 cumulative IPC: 0.661706 (Simulation time: 0 hr 13 min 57 sec) 
Simulation finished CPU 0 instructions: 100000002 cycles: 151124608 cumulative IPC: 0.661706 (Simulation time: 0 hr 13 min 57 sec) 

Simulation complete CPU 0 instructions: 100000002 cycles: 151124608 (Simulation time: 0 hr 13 min 57 sec) 


ChampSim completed all CPUs

Saving instructions large page distribution to /home/bsc/bsc018186/scratch/itp_asplos25_AE/dump/srv609_ap.pdst...
Saving data large page distribution to /home/bsc/bsc018186/scratch/itp_asplos25_AE/dump/srv609_ap.pdst...
=== Simulation ===
CPU 0 runs /gpfs/projects/bsc18/MN4/bsc18/romol/ChampSim/traces/qualcomm_srv/srv609_ap.champsimtrace.xz

Region of Interest Statistics

CPU 0 cumulative IPC: 0.661706 instructions: 100000002 cycles: 151124608
CPU 0 Branch Prediction Accuracy: 82.7981% MPKI: 30.7994 Average ROB Occupancy at Mispredict: 12.7228
Branch type MPKI
BRANCH_DIRECT_JUMP: 1.05946
BRANCH_INDIRECT: 15.699
BRANCH_CONDITIONAL: 10.2378
BRANCH_DIRECT_CALL: 1.91021
BRANCH_INDIRECT_CALL: 0.5206
BRANCH_RETURN: 1.37238

Instructions large pages: 0
Instructions small pages: 1039
Large page distribution for instructions: 0%

Data large pages: 0
Data small pages: 9598
Large page distribution for data: 0%

cpu0_L1I TOTAL       ACCESS:   35046274  HIT:   27187150  MISS:    7859124  iACCESS:   35046274  iHIT:   27187150  iMISS:    7859124  dACCESS:          0  dHIT:          0  dMISS:          0  itACCESS:          0  itHIT:          0  itMISS:          0  dtACCESS:          0  dtHIT:          0  dtMISS:          0
cpu0_L1I LOAD         ACCESS:   10268211  HIT:    8060152  MISS:    2208059  iACCESS:   10268211  iHIT:    8060152  iMISS:    2208059  dACCESS:          0  dHIT:          0  dMISS:          0  itACCESS:          0  itHIT:          0  itMISS:          0  dtACCESS:          0  dtHIT:          0  dtMISS:          0
cpu0_L1I RFO          ACCESS:          0  HIT:          0  MISS:          0  iACCESS:          0  iHIT:          0  iMISS:          0  dACCESS:          0  dHIT:          0  dMISS:          0  itACCESS:          0  itHIT:          0  itMISS:          0  dtACCESS:          0  dtHIT:          0  dtMISS:          0
cpu0_L1I PREFETCH     ACCESS:   24778063  HIT:   19126998  MISS:    5651065  iACCESS:   24778063  iHIT:   19126998  iMISS:    5651065  dACCESS:          0  dHIT:          0  dMISS:          0  itACCESS:          0  itHIT:          0  itMISS:          0  dtACCESS:          0  dtHIT:          0  dtMISS:          0
cpu0_L1I WRITE        ACCESS:          0  HIT:          0  MISS:          0  iACCESS:          0  iHIT:          0  iMISS:          0  dACCESS:          0  dHIT:          0  dMISS:          0  itACCESS:          0  itHIT:          0  itMISS:          0  dtACCESS:          0  dtHIT:          0  dtMISS:          0
cpu0_L1I TRANSLATION  ACCESS:          0  HIT:          0  MISS:          0  iACCESS:          0  iHIT:          0  iMISS:          0  dACCESS:          0  dHIT:          0  dMISS:          0  itACCESS:          0  itHIT:          0  itMISS:          0  dtACCESS:          0  dtHIT:          0  dtMISS:          0
cpu0_L1I PREFETCH  REQUESTED:   27310363  ISSUED:   27310363  CROSSED:          0  USEFUL:    1937152  USELESS:     630799
cpu0_L1I AVERAGE iMISS LATENCY: 12.6827 cycles
cpu0_L1I AVERAGE dMISS LATENCY: 0 cycles
cpu0_L1I AVERAGE itMISS LATENCY: 0 cycles
cpu0_L1I AVERAGE dtMISS LATENCY: 0 cycles
cpu0_L1I PAGE CROSSINGS (TLB HIT):         0 
cpu0_L1I PAGE CROSSINGS (TLB MISS):         0 
cpu0_L1I AVERAGE MISS LATENCY: 12.6827 cycles
cpu0_ITLB TOTAL       ACCESS:   29289901  HIT:   27343540  MISS:    1946361  iACCESS:   29289901  iHIT:   27343540  iMISS:    1946361  dACCESS:          0  dHIT:          0  dMISS:          0  itACCESS:          0  itHIT:          0  itMISS:          0  dtACCESS:          0  dtHIT:          0  dtMISS:          0
cpu0_ITLB LOAD         ACCESS:   29289901  HIT:   27343540  MISS:    1946361  iACCESS:   29289901  iHIT:   27343540  iMISS:    1946361  dACCESS:          0  dHIT:          0  dMISS:          0  itACCESS:          0  itHIT:          0  itMISS:          0  dtACCESS:          0  dtHIT:          0  dtMISS:          0
cpu0_ITLB RFO          ACCESS:          0  HIT:          0  MISS:          0  iACCESS:          0  iHIT:          0  iMISS:          0  dACCESS:          0  dHIT:          0  dMISS:          0  itACCESS:          0  itHIT:          0  itMISS:          0  dtACCESS:          0  dtHIT:          0  dtMISS:          0
cpu0_ITLB PREFETCH     ACCESS:          0  HIT:          0  MISS:          0  iACCESS:          0  iHIT:          0  iMISS:          0  dACCESS:          0  dHIT:          0  dMISS:          0  itACCESS:          0  itHIT:          0  itMISS:          0  dtACCESS:          0  dtHIT:          0  dtMISS:          0
cpu0_ITLB WRITE        ACCESS:          0  HIT:          0  MISS:          0  iACCESS:          0  iHIT:          0  iMISS:          0  dACCESS:          0  dHIT:          0  dMISS:          0  itACCESS:          0  itHIT:          0  itMISS:          0  dtACCESS:          0  dtHIT:          0  dtMISS:          0
cpu0_ITLB TRANSLATION  ACCESS:          0  HIT:          0  MISS:          0  iACCESS:          0  iHIT:          0  iMISS:          0  dACCESS:          0  dHIT:          0  dMISS:          0  itACCESS:          0  itHIT:          0  itMISS:          0  dtACCESS:          0  dtHIT:          0  dtMISS:          0
cpu0_ITLB PREFETCH  REQUESTED:          0  ISSUED:          0  CROSSED:          0  USEFUL:     316815  USELESS:      64877
cpu0_ITLB AVERAGE iMISS LATENCY: 2.26895 cycles
cpu0_ITLB AVERAGE dMISS LATENCY: 0 cycles
cpu0_ITLB AVERAGE itMISS LATENCY: 0 cycles
cpu0_ITLB AVERAGE dtMISS LATENCY: 0 cycles
cpu0_ITLB PAGE CROSSINGS (TLB HIT):         0 
cpu0_ITLB PAGE CROSSINGS (TLB MISS):         0 
cpu0_ITLB AVERAGE MISS LATENCY: 2.26895 cycles
cpu0_DTLB TOTAL       ACCESS:   27735314  HIT:   25678097  MISS:    2057217  iACCESS:          0  iHIT:          0  iMISS:          0  dACCESS:   27735314  dHIT:   25678097  dMISS:    2057217  itACCESS:          0  itHIT:          0  itMISS:          0  dtACCESS:          0  dtHIT:          0  dtMISS:          0
cpu0_DTLB LOAD         ACCESS:   27735314  HIT:   25678097  MISS:    2057217  iACCESS:          0  iHIT:          0  iMISS:          0  dACCESS:   27735314  dHIT:   25678097  dMISS:    2057217  itACCESS:          0  itHIT:          0  itMISS:          0  dtACCESS:          0  dtHIT:          0  dtMISS:          0
cpu0_DTLB RFO          ACCESS:          0  HIT:          0  MISS:          0  iACCESS:          0  iHIT:          0  iMISS:          0  dACCESS:          0  dHIT:          0  dMISS:          0  itACCESS:          0  itHIT:          0  itMISS:          0  dtACCESS:          0  dtHIT:          0  dtMISS:          0
cpu0_DTLB PREFETCH     ACCESS:          0  HIT:          0  MISS:          0  iACCESS:          0  iHIT:          0  iMISS:          0  dACCESS:          0  dHIT:          0  dMISS:          0  itACCESS:          0  itHIT:          0  itMISS:          0  dtACCESS:          0  dtHIT:          0  dtMISS:          0
cpu0_DTLB WRITE        ACCESS:          0  HIT:          0  MISS:          0  iACCESS:          0  iHIT:          0  iMISS:          0  dACCESS:          0  dHIT:          0  dMISS:          0  itACCESS:          0  itHIT:          0  itMISS:          0  dtACCESS:          0  dtHIT:          0  dtMISS:          0
cpu0_DTLB TRANSLATION  ACCESS:          0  HIT:          0  MISS:          0  iACCESS:          0  iHIT:          0  iMISS:          0  dACCESS:          0  dHIT:          0  dMISS:          0  itACCESS:          0  itHIT:          0  itMISS:          0  dtACCESS:          0  dtHIT:          0  dtMISS:          0
cpu0_DTLB PREFETCH  REQUESTED:          0  ISSUED:          0  CROSSED:          0  USEFUL:          0  USELESS:          0
cpu0_DTLB AVERAGE iMISS LATENCY: 0 cycles
cpu0_DTLB AVERAGE dMISS LATENCY: 16.5175 cycles
cpu0_DTLB AVERAGE itMISS LATENCY: 0 cycles
cpu0_DTLB AVERAGE dtMISS LATENCY: 0 cycles
cpu0_DTLB PAGE CROSSINGS (TLB HIT):         0 
cpu0_DTLB PAGE CROSSINGS (TLB MISS):         0 
cpu0_DTLB AVERAGE MISS LATENCY: 16.5175 cycles
cpu0_STLB TOTAL       ACCESS:    1634673  HIT:    1487278  MISS:     147395  iACCESS:     381695  iHIT:     372161  iMISS:       9534  dACCESS:    1252978  dHIT:    1115117  dMISS:     137861  itACCESS:          0  itHIT:          0  itMISS:          0  dtACCESS:          0  dtHIT:          0  dtMISS:          0
cpu0_STLB LOAD         ACCESS:    1634673  HIT:    1487278  MISS:     147395  iACCESS:     381695  iHIT:     372161  iMISS:       9534  dACCESS:    1252978  dHIT:    1115117  dMISS:     137861  itACCESS:          0  itHIT:          0  itMISS:          0  dtACCESS:          0  dtHIT:          0  dtMISS:          0
cpu0_STLB RFO          ACCESS:          0  HIT:          0  MISS:          0  iACCESS:          0  iHIT:          0  iMISS:          0  dACCESS:          0  dHIT:          0  dMISS:          0  itACCESS:          0  itHIT:          0  itMISS:          0  dtACCESS:          0  dtHIT:          0  dtMISS:          0
cpu0_STLB PREFETCH     ACCESS:          0  HIT:          0  MISS:          0  iACCESS:          0  iHIT:          0  iMISS:          0  dACCESS:          0  dHIT:          0  dMISS:          0  itACCESS:          0  itHIT:          0  itMISS:          0  dtACCESS:          0  dtHIT:          0  dtMISS:          0
cpu0_STLB WRITE        ACCESS:          0  HIT:          0  MISS:          0  iACCESS:          0  iHIT:          0  iMISS:          0  dACCESS:          0  dHIT:          0  dMISS:          0  itACCESS:          0  itHIT:          0  itMISS:          0  dtACCESS:          0  dtHIT:          0  dtMISS:          0
cpu0_STLB TRANSLATION  ACCESS:          0  HIT:          0  MISS:          0  iACCESS:          0  iHIT:          0  iMISS:          0  dACCESS:          0  dHIT:          0  dMISS:          0  itACCESS:          0  itHIT:          0  itMISS:          0  dtACCESS:          0  dtHIT:          0  dtMISS:          0
cpu0_STLB PREFETCH  REQUESTED:          0  ISSUED:          0  CROSSED:          0  USEFUL:          0  USELESS:          0
cpu0_STLB AVERAGE iMISS LATENCY: 9.87411 cycles
cpu0_STLB AVERAGE dMISS LATENCY: 162.593 cycles
cpu0_STLB AVERAGE itMISS LATENCY: 0 cycles
cpu0_STLB AVERAGE dtMISS LATENCY: 0 cycles
cpu0_STLB PAGE CROSSINGS (TLB HIT):         0 
cpu0_STLB PAGE CROSSINGS (TLB MISS):         0 
cpu0_STLB AVERAGE MISS LATENCY: 172.467 cycles
cpu0_L1D TOTAL       ACCESS:   41544601  HIT:   38008099  MISS:    3536502  iACCESS:          0  iHIT:          0  iMISS:          0  dACCESS:   41327028  dHIT:   37994403  dMISS:    3332625  itACCESS:      11337  itHIT:       1061  itMISS:      10276  dtACCESS:     206236  dtHIT:      12635  dtMISS:     193601
cpu0_L1D LOAD         ACCESS:   18945141  HIT:   17419638  MISS:    1525503  iACCESS:          0  iHIT:          0  iMISS:          0  dACCESS:   18945141  dHIT:   17419638  dMISS:    1525503  itACCESS:          0  itHIT:          0  itMISS:          0  dtACCESS:          0  dtHIT:          0  dtMISS:          0
cpu0_L1D RFO          ACCESS:          0  HIT:          0  MISS:          0  iACCESS:          0  iHIT:          0  iMISS:          0  dACCESS:          0  dHIT:          0  dMISS:          0  itACCESS:          0  itHIT:          0  itMISS:          0  dtACCESS:          0  dtHIT:          0  dtMISS:          0
cpu0_L1D PREFETCH     ACCESS:   12172732  HIT:   10806655  MISS:    1366077  iACCESS:          0  iHIT:          0  iMISS:          0  dACCESS:   12172732  dHIT:   10806655  dMISS:    1366077  itACCESS:          0  itHIT:          0  itMISS:          0  dtACCESS:          0  dtHIT:          0  dtMISS:          0
cpu0_L1D WRITE        ACCESS:   10209155  HIT:    9768110  MISS:     441045  iACCESS:          0  iHIT:          0  iMISS:          0  dACCESS:   10209155  dHIT:    9768110  dMISS:     441045  itACCESS:          0  itHIT:          0  itMISS:          0  dtACCESS:          0  dtHIT:          0  dtMISS:          0
cpu0_L1D TRANSLATION  ACCESS:     217573  HIT:      13696  MISS:     203877  iACCESS:          0  iHIT:          0  iMISS:          0  dACCESS:          0  dHIT:          0  dMISS:          0  itACCESS:      11337  itHIT:       1061  itMISS:      10276  dtACCESS:     206236  dtHIT:      12635  dtMISS:     193601
cpu0_L1D PREFETCH  REQUESTED:   18945141  ISSUED:   16969435  CROSSED:          0  USEFUL:     304007  USELESS:     704115
cpu0_L1D AVERAGE iMISS LATENCY: 0 cycles
cpu0_L1D AVERAGE dMISS LATENCY: 32.2917 cycles
cpu0_L1D AVERAGE itMISS LATENCY: 0.38255 cycles
cpu0_L1D AVERAGE dtMISS LATENCY: 6.03699 cycles
cpu0_L1D PAGE CROSSINGS (TLB HIT):         0 
cpu0_L1D PAGE CROSSINGS (TLB MISS):         0 
cpu0_L1D AVERAGE MISS LATENCY: 38.7112 cycles
cpu0_L2C TOTAL       ACCESS:    7014414  HIT:    4064080  MISS:    2950334  iACCESS:    3314815  iHIT:    2215324  iMISS:    1099491  dACCESS:    3506377  dHIT:    1814566  dMISS:    1691811  itACCESS:      10276  itHIT:       1988  itMISS:       8288  dtACCESS:     182946  dtHIT:      32202  dtMISS:     150744
cpu0_L2C LOAD         ACCESS:    1721208  HIT:    1036265  MISS:     684943  iACCESS:     786300  iHIT:     553292  iMISS:     233008  dACCESS:     934908  dHIT:     482973  dMISS:     451935  itACCESS:          0  itHIT:          0  itMISS:          0  dtACCESS:          0  dtHIT:          0  dtMISS:          0
cpu0_L2C RFO          ACCESS:     159332  HIT:      74403  MISS:      84929  iACCESS:          0  iHIT:          0  iMISS:          0  dACCESS:     159332  dHIT:      74403  dMISS:      84929  itACCESS:          0  itHIT:          0  itMISS:          0  dtACCESS:          0  dtHIT:          0  dtMISS:          0
cpu0_L2C PREFETCH     ACCESS:    4657686  HIT:    2637556  MISS:    2020130  iACCESS:    2528515  iHIT:    1662032  iMISS:     866483  dACCESS:    2129171  dHIT:     975524  dMISS:    1153647  itACCESS:          0  itHIT:          0  itMISS:          0  dtACCESS:          0  dtHIT:          0  dtMISS:          0
cpu0_L2C WRITE        ACCESS:     282966  HIT:     281666  MISS:       1300  iACCESS:          0  iHIT:          0  iMISS:          0  dACCESS:     282966  dHIT:     281666  dMISS:       1300  itACCESS:          0  itHIT:          0  itMISS:          0  dtACCESS:          0  dtHIT:          0  dtMISS:          0
cpu0_L2C TRANSLATION  ACCESS:     193222  HIT:      34190  MISS:     159032  iACCESS:          0  iHIT:          0  iMISS:          0  dACCESS:          0  dHIT:          0  dMISS:          0  itACCESS:      10276  itHIT:       1988  itMISS:       8288  dtACCESS:     182946  dtHIT:      32202  dtMISS:     150744
cpu0_L2C PREFETCH  REQUESTED:    1381057  ISSUED:    1381057  CROSSED:          0  USEFUL:     329728  USELESS:     237855
cpu0_L2C AVERAGE iMISS LATENCY: 23.6129 cycles
cpu0_L2C AVERAGE dMISS LATENCY: 45.9635 cycles
cpu0_L2C AVERAGE itMISS LATENCY: 0.424285 cycles
cpu0_L2C AVERAGE dtMISS LATENCY: 6.62262 cycles
cpu0_L2C PAGE CROSSINGS (TLB HIT):         0 
cpu0_L2C PAGE CROSSINGS (TLB MISS):         0 
cpu0_L2C AVERAGE MISS LATENCY: 76.6233 cycles
LLC TOTAL       ACCESS:    2964461  HIT:    1892132  MISS:    1072329  iACCESS:    1041881  iHIT:     710612  iMISS:     331269  dACCESS:    1763548  dHIT:    1121716  dMISS:     641832  itACCESS:       8288  itHIT:       2130  itMISS:       6158  dtACCESS:     150744  dtHIT:      57674  dtMISS:      93070
LLC LOAD         ACCESS:     682710  HIT:     451961  MISS:     230749  iACCESS:     231749  iHIT:     161727  iMISS:      70022  dACCESS:     450961  dHIT:     290234  dMISS:     160727  itACCESS:          0  itHIT:          0  itMISS:          0  dtACCESS:          0  dtHIT:          0  dtMISS:          0
LLC RFO          ACCESS:      84926  HIT:      45383  MISS:      39543  iACCESS:          0  iHIT:          0  iMISS:          0  dACCESS:      84926  dHIT:      45383  dMISS:      39543  itACCESS:          0  itHIT:          0  itMISS:          0  dtACCESS:          0  dtHIT:          0  dtMISS:          0
LLC PREFETCH     ACCESS:    1906233  HIT:    1209201  MISS:     697032  iACCESS:     810132  iHIT:     548885  iMISS:     261247  dACCESS:    1096101  dHIT:     660316  dMISS:     435785  itACCESS:          0  itHIT:          0  itMISS:          0  dtACCESS:          0  dtHIT:          0  dtMISS:          0
LLC WRITE        ACCESS:     131560  HIT:     125783  MISS:       5777  iACCESS:          0  iHIT:          0  iMISS:          0  dACCESS:     131560  dHIT:     125783  dMISS:       5777  itACCESS:          0  itHIT:          0  itMISS:          0  dtACCESS:          0  dtHIT:          0  dtMISS:          0
LLC TRANSLATION  ACCESS:     159032  HIT:      59804  MISS:      99228  iACCESS:          0  iHIT:          0  iMISS:          0  dACCESS:          0  dHIT:          0  dMISS:          0  itACCESS:       8288  itHIT:       2130  itMISS:       6158  dtACCESS:     150744  dtHIT:      57674  dtMISS:      93070
LLC PREFETCH  REQUESTED:          0  ISSUED:          0  CROSSED:          0  USEFUL:          0  USELESS:          0
LLC AVERAGE iMISS LATENCY: 46.0832 cycles
LLC AVERAGE dMISS LATENCY: 97.0829 cycles
LLC AVERAGE itMISS LATENCY: 1.01534 cycles
LLC AVERAGE dtMISS LATENCY: 15.4705 cycles
LLC PAGE CROSSINGS (TLB HIT):         0 
LLC PAGE CROSSINGS (TLB MISS):         0 
LLC AVERAGE MISS LATENCY: 159.652 cycles

PageTableWalker TOTAL       ACCESS:      74456  
PageTableWalker AVERAGE LATENCY: 5.67229 cycles
PageTableWalker TOTAL LATENCY: 422336 cycles

DRAM Statistics
Channel 0
 RQ ROW_BUFFER_HIT:     275821
  ROW_BUFFER_MISS:     790059
 AVG DBUS CONGESTED CYCLE:    3.62432
 WQ ROW_BUFFER_HIT:      20856
  ROW_BUFFER_MISS:      21720  FULL:          0

