last_page:0x200000000000000
VMEM_RES_CAP:0x100000
PAGE_SIZE:4096
LOG2_PAGE_SIZE:12
LOG2_PAGE_TABLE_SIZE:9
page_table_levels:5
WARNING: physical memory size is smaller than virtual memory size
FDiP enabled with aggresivity 16

*** ChampSim Multicore Out-of-Order Simulator ***

Warmup Instructions: 50000000
Simulation Instructions: 100000000
Number of CPUs: 1
Small page size: 4096
Large page size: 2097152

CPU 0 Bimodal branch predictor
Basic BTB sets: 1024 ways: 8 indirect buffer size: 4096 RAS size: 64
Instruction page size distrubution: 0
Loading instruction page size distribution from /home/bsc/bsc018186/scratch/itp_asplos25_AE/dump/srv617_ap.pdst
Data page size distrubution: 0
Loading data page size distribution from /home/bsc/bsc018186/scratch/itp_asplos25_AE/dump/srv617_ap.pdst
cpu0_L2C IP-based stride prefetcher
cpu0_L2C is using xPTP/LRU
	TLB_LOWER_STRESS_THRESHOLD:1
	TLB_UPPER_STRESS_THRESHOLD:9
	MIN_EVICTION_POSITION:4
cpu0_L1D next line prefetcher
cpu0_STLB using iTP with max lru@8
cpu0_STLB using iTP with instr@0 and data@2
Init sat counter with 3 bits (max:50).
cpu0_L1I next line prefetcher
Off-chip DRAM Size: 4 GiB Channels: 1 Width: 64-bit Data Rate: 3200 MT/s
Heartbeat CPU 0 instructions: 10000001 cycles: 2500172 heartbeat IPC: 3.99973 cumulative IPC: 3.99973 (Simulation time: 0 hr 0 min 39 sec) 
Heartbeat CPU 0 instructions: 20000001 cycles: 5000206 heartbeat IPC: 3.99995 cumulative IPC: 3.99984 (Simulation time: 0 hr 1 min 20 sec) 
Heartbeat CPU 0 instructions: 30000001 cycles: 7501469 heartbeat IPC: 3.99799 cumulative IPC: 3.99922 (Simulation time: 0 hr 2 min 2 sec) 
Heartbeat CPU 0 instructions: 40000001 cycles: 10001540 heartbeat IPC: 3.99989 cumulative IPC: 3.99939 (Simulation time: 0 hr 2 min 41 sec) 
Heartbeat CPU 0 instructions: 50000002 cycles: 12501581 heartbeat IPC: 3.99994 cumulative IPC: 3.9995 (Simulation time: 0 hr 3 min 23 sec) 
Warmup finished CPU 0 instructions: 50000002 cycles: 12501582 cumulative IPC: 3.9995 (Simulation time: 0 hr 3 min 23 sec) 

Warmup complete CPU 0 instructions: 50000002 cycles: 12501582 (Simulation time: 0 hr 3 min 23 sec) 

Heartbeat CPU 0 instructions: 60000001 cycles: 30291177 heartbeat IPC: 0.562127 cumulative IPC: 0.562127 (Simulation time: 0 hr 4 min 34 sec) 
Heartbeat CPU 0 instructions: 70000000 cycles: 47878411 heartbeat IPC: 0.568595 cumulative IPC: 0.565342 (Simulation time: 0 hr 5 min 44 sec) 
Heartbeat CPU 0 instructions: 80000001 cycles: 59544240 heartbeat IPC: 0.857205 cumulative IPC: 0.63772 (Simulation time: 0 hr 6 min 42 sec) 
Heartbeat CPU 0 instructions: 90000002 cycles: 78132789 heartbeat IPC: 0.537966 cumulative IPC: 0.609467 (Simulation time: 0 hr 7 min 59 sec) 
Heartbeat CPU 0 instructions: 100000001 cycles: 94800470 heartbeat IPC: 0.599964 cumulative IPC: 0.607542 (Simulation time: 0 hr 9 min 13 sec) 
*** Reached end of trace: /gpfs/projects/bsc18/MN4/bsc18/romol/ChampSim/traces/qualcomm_srv/srv617_ap.champsimtrace.xz
Heartbeat CPU 0 instructions: 110000003 cycles: 112510934 heartbeat IPC: 0.564639 cumulative IPC: 0.599944 (Simulation time: 0 hr 10 min 29 sec) 
Heartbeat CPU 0 instructions: 120000003 cycles: 130513528 heartbeat IPC: 0.555476 cumulative IPC: 0.593161 (Simulation time: 0 hr 11 min 42 sec) 
Heartbeat CPU 0 instructions: 130000000 cycles: 148149923 heartbeat IPC: 0.56701 cumulative IPC: 0.589761 (Simulation time: 0 hr 12 min 58 sec) 
Heartbeat CPU 0 instructions: 140000004 cycles: 166685166 heartbeat IPC: 0.539513 cumulative IPC: 0.58372 (Simulation time: 0 hr 14 min 13 sec) 
Heartbeat CPU 0 instructions: 150000000 cycles: 185240420 heartbeat IPC: 0.538931 cumulative IPC: 0.578909 (Simulation time: 0 hr 15 min 24 sec) 
Simulation finished CPU 0 instructions: 100000003 cycles: 172738840 cumulative IPC: 0.578909 (Simulation time: 0 hr 15 min 24 sec) 

Simulation complete CPU 0 instructions: 100000003 cycles: 172738840 (Simulation time: 0 hr 15 min 24 sec) 


ChampSim completed all CPUs

Saving instructions large page distribution to /home/bsc/bsc018186/scratch/itp_asplos25_AE/dump/srv617_ap.pdst...
Saving data large page distribution to /home/bsc/bsc018186/scratch/itp_asplos25_AE/dump/srv617_ap.pdst...
=== Simulation ===
CPU 0 runs /gpfs/projects/bsc18/MN4/bsc18/romol/ChampSim/traces/qualcomm_srv/srv617_ap.champsimtrace.xz

Region of Interest Statistics

CPU 0 cumulative IPC: 0.578909 instructions: 100000003 cycles: 172738840
CPU 0 Branch Prediction Accuracy: 79.8046% MPKI: 36.7393 Average ROB Occupancy at Mispredict: 10.7881
Branch type MPKI
BRANCH_DIRECT_JUMP: 1.2705
BRANCH_INDIRECT: 18.5871
BRANCH_CONDITIONAL: 11.9361
BRANCH_DIRECT_CALL: 2.33997
BRANCH_INDIRECT_CALL: 0.99686
BRANCH_RETURN: 1.60878

Instructions large pages: 0
Instructions small pages: 6971
Large page distribution for instructions: 0%

Data large pages: 0
Data small pages: 5426
Large page distribution for data: 0%

cpu0_L1I TOTAL       ACCESS:   35227574  HIT:   27522162  MISS:    7705412  iACCESS:   35227574  iHIT:   27522162  iMISS:    7705412  dACCESS:          0  dHIT:          0  dMISS:          0  itACCESS:          0  itHIT:          0  itMISS:          0  dtACCESS:          0  dtHIT:          0  dtMISS:          0
cpu0_L1I LOAD         ACCESS:   10028599  HIT:    7913544  MISS:    2115055  iACCESS:   10028599  iHIT:    7913544  iMISS:    2115055  dACCESS:          0  dHIT:          0  dMISS:          0  itACCESS:          0  itHIT:          0  itMISS:          0  dtACCESS:          0  dtHIT:          0  dtMISS:          0
cpu0_L1I RFO          ACCESS:          0  HIT:          0  MISS:          0  iACCESS:          0  iHIT:          0  iMISS:          0  dACCESS:          0  dHIT:          0  dMISS:          0  itACCESS:          0  itHIT:          0  itMISS:          0  dtACCESS:          0  dtHIT:          0  dtMISS:          0
cpu0_L1I PREFETCH     ACCESS:   25198975  HIT:   19608618  MISS:    5590357  iACCESS:   25198975  iHIT:   19608618  iMISS:    5590357  dACCESS:          0  dHIT:          0  dMISS:          0  itACCESS:          0  itHIT:          0  itMISS:          0  dtACCESS:          0  dtHIT:          0  dtMISS:          0
cpu0_L1I WRITE        ACCESS:          0  HIT:          0  MISS:          0  iACCESS:          0  iHIT:          0  iMISS:          0  dACCESS:          0  dHIT:          0  dMISS:          0  itACCESS:          0  itHIT:          0  itMISS:          0  dtACCESS:          0  dtHIT:          0  dtMISS:          0
cpu0_L1I TRANSLATION  ACCESS:          0  HIT:          0  MISS:          0  iACCESS:          0  iHIT:          0  iMISS:          0  dACCESS:          0  dHIT:          0  dMISS:          0  itACCESS:          0  itHIT:          0  itMISS:          0  dtACCESS:          0  dtHIT:          0  dtMISS:          0
cpu0_L1I PREFETCH  REQUESTED:   27517507  ISSUED:   27517338  CROSSED:          0  USEFUL:    1904152  USELESS:     626289
cpu0_L1I AVERAGE iMISS LATENCY: 16.661 cycles
cpu0_L1I AVERAGE dMISS LATENCY: 0 cycles
cpu0_L1I AVERAGE itMISS LATENCY: 0 cycles
cpu0_L1I AVERAGE dtMISS LATENCY: 0 cycles
cpu0_L1I PAGE CROSSINGS (TLB HIT):         0 
cpu0_L1I PAGE CROSSINGS (TLB MISS):         0 
cpu0_L1I AVERAGE MISS LATENCY: 16.661 cycles
cpu0_ITLB TOTAL       ACCESS:   29615919  HIT:   27801750  MISS:    1814169  iACCESS:   29615919  iHIT:   27801750  iMISS:    1814169  dACCESS:          0  dHIT:          0  dMISS:          0  itACCESS:          0  itHIT:          0  itMISS:          0  dtACCESS:          0  dtHIT:          0  dtMISS:          0
cpu0_ITLB LOAD         ACCESS:   29615919  HIT:   27801750  MISS:    1814169  iACCESS:   29615919  iHIT:   27801750  iMISS:    1814169  dACCESS:          0  dHIT:          0  dMISS:          0  itACCESS:          0  itHIT:          0  itMISS:          0  dtACCESS:          0  dtHIT:          0  dtMISS:          0
cpu0_ITLB RFO          ACCESS:          0  HIT:          0  MISS:          0  iACCESS:          0  iHIT:          0  iMISS:          0  dACCESS:          0  dHIT:          0  dMISS:          0  itACCESS:          0  itHIT:          0  itMISS:          0  dtACCESS:          0  dtHIT:          0  dtMISS:          0
cpu0_ITLB PREFETCH     ACCESS:          0  HIT:          0  MISS:          0  iACCESS:          0  iHIT:          0  iMISS:          0  dACCESS:          0  dHIT:          0  dMISS:          0  itACCESS:          0  itHIT:          0  itMISS:          0  dtACCESS:          0  dtHIT:          0  dtMISS:          0
cpu0_ITLB WRITE        ACCESS:          0  HIT:          0  MISS:          0  iACCESS:          0  iHIT:          0  iMISS:          0  dACCESS:          0  dHIT:          0  dMISS:          0  itACCESS:          0  itHIT:          0  itMISS:          0  dtACCESS:          0  dtHIT:          0  dtMISS:          0
cpu0_ITLB TRANSLATION  ACCESS:          0  HIT:          0  MISS:          0  iACCESS:          0  iHIT:          0  iMISS:          0  dACCESS:          0  dHIT:          0  dMISS:          0  itACCESS:          0  itHIT:          0  itMISS:          0  dtACCESS:          0  dtHIT:          0  dtMISS:          0
cpu0_ITLB PREFETCH  REQUESTED:          0  ISSUED:          0  CROSSED:          0  USEFUL:     309601  USELESS:      61318
cpu0_ITLB AVERAGE iMISS LATENCY: 3.76808 cycles
cpu0_ITLB AVERAGE dMISS LATENCY: 0 cycles
cpu0_ITLB AVERAGE itMISS LATENCY: 0 cycles
cpu0_ITLB AVERAGE dtMISS LATENCY: 0 cycles
cpu0_ITLB PAGE CROSSINGS (TLB HIT):         0 
cpu0_ITLB PAGE CROSSINGS (TLB MISS):         0 
cpu0_ITLB AVERAGE MISS LATENCY: 3.76808 cycles
cpu0_DTLB TOTAL       ACCESS:   28730510  HIT:   26891741  MISS:    1838769  iACCESS:          0  iHIT:          0  iMISS:          0  dACCESS:   28730510  dHIT:   26891741  dMISS:    1838769  itACCESS:          0  itHIT:          0  itMISS:          0  dtACCESS:          0  dtHIT:          0  dtMISS:          0
cpu0_DTLB LOAD         ACCESS:   28730510  HIT:   26891741  MISS:    1838769  iACCESS:          0  iHIT:          0  iMISS:          0  dACCESS:   28730510  dHIT:   26891741  dMISS:    1838769  itACCESS:          0  itHIT:          0  itMISS:          0  dtACCESS:          0  dtHIT:          0  dtMISS:          0
cpu0_DTLB RFO          ACCESS:          0  HIT:          0  MISS:          0  iACCESS:          0  iHIT:          0  iMISS:          0  dACCESS:          0  dHIT:          0  dMISS:          0  itACCESS:          0  itHIT:          0  itMISS:          0  dtACCESS:          0  dtHIT:          0  dtMISS:          0
cpu0_DTLB PREFETCH     ACCESS:          0  HIT:          0  MISS:          0  iACCESS:          0  iHIT:          0  iMISS:          0  dACCESS:          0  dHIT:          0  dMISS:          0  itACCESS:          0  itHIT:          0  itMISS:          0  dtACCESS:          0  dtHIT:          0  dtMISS:          0
cpu0_DTLB WRITE        ACCESS:          0  HIT:          0  MISS:          0  iACCESS:          0  iHIT:          0  iMISS:          0  dACCESS:          0  dHIT:          0  dMISS:          0  itACCESS:          0  itHIT:          0  itMISS:          0  dtACCESS:          0  dtHIT:          0  dtMISS:          0
cpu0_DTLB TRANSLATION  ACCESS:          0  HIT:          0  MISS:          0  iACCESS:          0  iHIT:          0  iMISS:          0  dACCESS:          0  dHIT:          0  dMISS:          0  itACCESS:          0  itHIT:          0  itMISS:          0  dtACCESS:          0  dtHIT:          0  dtMISS:          0
cpu0_DTLB PREFETCH  REQUESTED:          0  ISSUED:          0  CROSSED:          0  USEFUL:          0  USELESS:          0
cpu0_DTLB AVERAGE iMISS LATENCY: 0 cycles
cpu0_DTLB AVERAGE dMISS LATENCY: 13.5561 cycles
cpu0_DTLB AVERAGE itMISS LATENCY: 0 cycles
cpu0_DTLB AVERAGE dtMISS LATENCY: 0 cycles
cpu0_DTLB PAGE CROSSINGS (TLB HIT):         0 
cpu0_DTLB PAGE CROSSINGS (TLB MISS):         0 
cpu0_DTLB AVERAGE MISS LATENCY: 13.5561 cycles
cpu0_STLB TOTAL       ACCESS:    1515972  HIT:    1315500  MISS:     200472  iACCESS:     370926  iHIT:     338583  iMISS:      32343  dACCESS:    1145046  dHIT:     976917  dMISS:     168129  itACCESS:          0  itHIT:          0  itMISS:          0  dtACCESS:          0  dtHIT:          0  dtMISS:          0
cpu0_STLB LOAD         ACCESS:    1515972  HIT:    1315500  MISS:     200472  iACCESS:     370926  iHIT:     338583  iMISS:      32343  dACCESS:    1145046  dHIT:     976917  dMISS:     168129  itACCESS:          0  itHIT:          0  itMISS:          0  dtACCESS:          0  dtHIT:          0  dtMISS:          0
cpu0_STLB RFO          ACCESS:          0  HIT:          0  MISS:          0  iACCESS:          0  iHIT:          0  iMISS:          0  dACCESS:          0  dHIT:          0  dMISS:          0  itACCESS:          0  itHIT:          0  itMISS:          0  dtACCESS:          0  dtHIT:          0  dtMISS:          0
cpu0_STLB PREFETCH     ACCESS:          0  HIT:          0  MISS:          0  iACCESS:          0  iHIT:          0  iMISS:          0  dACCESS:          0  dHIT:          0  dMISS:          0  itACCESS:          0  itHIT:          0  itMISS:          0  dtACCESS:          0  dtHIT:          0  dtMISS:          0
cpu0_STLB WRITE        ACCESS:          0  HIT:          0  MISS:          0  iACCESS:          0  iHIT:          0  iMISS:          0  dACCESS:          0  dHIT:          0  dMISS:          0  itACCESS:          0  itHIT:          0  itMISS:          0  dtACCESS:          0  dtHIT:          0  dtMISS:          0
cpu0_STLB TRANSLATION  ACCESS:          0  HIT:          0  MISS:          0  iACCESS:          0  iHIT:          0  iMISS:          0  dACCESS:          0  dHIT:          0  dMISS:          0  itACCESS:          0  itHIT:          0  itMISS:          0  dtACCESS:          0  dtHIT:          0  dtMISS:          0
cpu0_STLB PREFETCH  REQUESTED:          0  ISSUED:          0  CROSSED:          0  USEFUL:          0  USELESS:          0
cpu0_STLB AVERAGE iMISS LATENCY: 19.6244 cycles
cpu0_STLB AVERAGE dMISS LATENCY: 78.4455 cycles
cpu0_STLB AVERAGE itMISS LATENCY: 0 cycles
cpu0_STLB AVERAGE dtMISS LATENCY: 0 cycles
cpu0_STLB PAGE CROSSINGS (TLB HIT):         0 
cpu0_STLB PAGE CROSSINGS (TLB MISS):         0 
cpu0_STLB AVERAGE MISS LATENCY: 98.0699 cycles
cpu0_L1D TOTAL       ACCESS:   43845525  HIT:   39585153  MISS:    4260372  iACCESS:          0  iHIT:          0  iMISS:          0  dACCESS:   43572488  dHIT:   39568690  dMISS:    4003798  itACCESS:      39217  itHIT:       3636  itMISS:      35581  dtACCESS:     233820  dtHIT:      12827  dtMISS:     220993
cpu0_L1D LOAD         ACCESS:   20289725  HIT:   18482602  MISS:    1807123  iACCESS:          0  iHIT:          0  iMISS:          0  dACCESS:   20289725  dHIT:   18482602  dMISS:    1807123  itACCESS:          0  itHIT:          0  itMISS:          0  dtACCESS:          0  dtHIT:          0  dtMISS:          0
cpu0_L1D RFO          ACCESS:          0  HIT:          0  MISS:          0  iACCESS:          0  iHIT:          0  iMISS:          0  dACCESS:          0  dHIT:          0  dMISS:          0  itACCESS:          0  itHIT:          0  itMISS:          0  dtACCESS:          0  dtHIT:          0  dtMISS:          0
cpu0_L1D PREFETCH     ACCESS:   13233102  HIT:   11535253  MISS:    1697849  iACCESS:          0  iHIT:          0  iMISS:          0  dACCESS:   13233102  dHIT:   11535253  dMISS:    1697849  itACCESS:          0  itHIT:          0  itMISS:          0  dtACCESS:          0  dtHIT:          0  dtMISS:          0
cpu0_L1D WRITE        ACCESS:   10049661  HIT:    9550835  MISS:     498826  iACCESS:          0  iHIT:          0  iMISS:          0  dACCESS:   10049661  dHIT:    9550835  dMISS:     498826  itACCESS:          0  itHIT:          0  itMISS:          0  dtACCESS:          0  dtHIT:          0  dtMISS:          0
cpu0_L1D TRANSLATION  ACCESS:     273037  HIT:      16463  MISS:     256574  iACCESS:          0  iHIT:          0  iMISS:          0  dACCESS:          0  dHIT:          0  dMISS:          0  itACCESS:      39217  itHIT:       3636  itMISS:      35581  dtACCESS:     233820  dtHIT:      12827  dtMISS:     220993
cpu0_L1D PREFETCH  REQUESTED:   20289725  ISSUED:   17927320  CROSSED:          0  USEFUL:     318528  USELESS:     693624
cpu0_L1D AVERAGE iMISS LATENCY: 0 cycles
cpu0_L1D AVERAGE dMISS LATENCY: 33.8056 cycles
cpu0_L1D AVERAGE itMISS LATENCY: 0.845925 cycles
cpu0_L1D AVERAGE dtMISS LATENCY: 3.18242 cycles
cpu0_L1D PAGE CROSSINGS (TLB HIT):         0 
cpu0_L1D PAGE CROSSINGS (TLB MISS):         0 
cpu0_L1D AVERAGE MISS LATENCY: 37.834 cycles
cpu0_L2C TOTAL       ACCESS:    7046965  HIT:    2308877  MISS:    4738088  iACCESS:    3217805  iHIT:    1245655  iMISS:    1972150  dACCESS:    3583507  dHIT:     914739  dMISS:    2668768  itACCESS:      32317  itHIT:       8689  itMISS:      23628  dtACCESS:     213336  dtHIT:     139794  dtMISS:      73542
cpu0_L2C LOAD         ACCESS:    1667875  HIT:     473369  MISS:    1194506  iACCESS:     722192  iHIT:     256383  iMISS:     465809  dACCESS:     945683  dHIT:     216986  dMISS:     728697  itACCESS:          0  itHIT:          0  itMISS:          0  dtACCESS:          0  dtHIT:          0  dtMISS:          0
cpu0_L2C RFO          ACCESS:     163238  HIT:      31000  MISS:     132238  iACCESS:          0  iHIT:          0  iMISS:          0  dACCESS:     163238  dHIT:      31000  dMISS:     132238  itACCESS:          0  itHIT:          0  itMISS:          0  dtACCESS:          0  dtHIT:          0  dtMISS:          0
cpu0_L2C PREFETCH     ACCESS:    4694622  HIT:    1538645  MISS:    3155977  iACCESS:    2495613  iHIT:     989272  iMISS:    1506341  dACCESS:    2199009  dHIT:     549373  dMISS:    1649636  itACCESS:          0  itHIT:          0  itMISS:          0  dtACCESS:          0  dtHIT:          0  dtMISS:          0
cpu0_L2C WRITE        ACCESS:     275577  HIT:     117380  MISS:     158197  iACCESS:          0  iHIT:          0  iMISS:          0  dACCESS:     275577  dHIT:     117380  dMISS:     158197  itACCESS:          0  itHIT:          0  itMISS:          0  dtACCESS:          0  dtHIT:          0  dtMISS:          0
cpu0_L2C TRANSLATION  ACCESS:     245653  HIT:     148483  MISS:      97170  iACCESS:          0  iHIT:          0  iMISS:          0  dACCESS:          0  dHIT:          0  dMISS:          0  itACCESS:      32317  itHIT:       8689  itMISS:      23628  dtACCESS:     213336  dtHIT:     139794  dtMISS:      73542
cpu0_L2C PREFETCH  REQUESTED:    1437971  ISSUED:    1437843  CROSSED:          0  USEFUL:     374161  USELESS:     369263
cpu0_L2C AVERAGE iMISS LATENCY: 21.0467 cycles
cpu0_L2C AVERAGE dMISS LATENCY: 37.2505 cycles
cpu0_L2C AVERAGE itMISS LATENCY: 0.694048 cycles
cpu0_L2C AVERAGE dtMISS LATENCY: 2.43905 cycles
cpu0_L2C PAGE CROSSINGS (TLB HIT):         0 
cpu0_L2C PAGE CROSSINGS (TLB MISS):         0 
cpu0_L2C AVERAGE MISS LATENCY: 61.4302 cycles
LLC TOTAL       ACCESS:    4636283  HIT:    3360815  MISS:    1275468  iACCESS:    1908363  iHIT:    1487456  iMISS:     420907  dACCESS:    2630750  dHIT:    1847730  dMISS:     783020  itACCESS:      23628  itHIT:       7441  itMISS:      16187  dtACCESS:      73542  dtHIT:      18188  dtMISS:      55354
LLC LOAD         ACCESS:    1189383  HIT:     911045  MISS:     278338  iACCESS:     464729  iHIT:     379755  iMISS:      84974  dACCESS:     724654  dHIT:     531290  dMISS:     193364  itACCESS:          0  itHIT:          0  itMISS:          0  dtACCESS:          0  dtHIT:          0  dtMISS:          0
LLC RFO          ACCESS:     132237  HIT:      76792  MISS:      55445  iACCESS:          0  iHIT:          0  iMISS:          0  dACCESS:     132237  dHIT:      76792  dMISS:      55445  itACCESS:          0  itHIT:          0  itMISS:          0  dtACCESS:          0  dtHIT:          0  dtMISS:          0
LLC PREFETCH     ACCESS:    3012185  HIT:    2144643  MISS:     867542  iACCESS:    1443634  iHIT:    1107701  iMISS:     335933  dACCESS:    1568551  dHIT:    1036942  dMISS:     531609  itACCESS:          0  itHIT:          0  itMISS:          0  dtACCESS:          0  dtHIT:          0  dtMISS:          0
LLC WRITE        ACCESS:     205308  HIT:     202706  MISS:       2602  iACCESS:          0  iHIT:          0  iMISS:          0  dACCESS:     205308  dHIT:     202706  dMISS:       2602  itACCESS:          0  itHIT:          0  itMISS:          0  dtACCESS:          0  dtHIT:          0  dtMISS:          0
LLC TRANSLATION  ACCESS:      97170  HIT:      25629  MISS:      71541  iACCESS:          0  iHIT:          0  iMISS:          0  dACCESS:          0  dHIT:          0  dMISS:          0  itACCESS:      23628  itHIT:       7441  itMISS:      16187  dtACCESS:      73542  dtHIT:      18188  dtMISS:      55354
LLC PREFETCH  REQUESTED:          0  ISSUED:          0  CROSSED:          0  USEFUL:          0  USELESS:          0
LLC AVERAGE iMISS LATENCY: 49.2377 cycles
LLC AVERAGE dMISS LATENCY: 102.58 cycles
LLC AVERAGE itMISS LATENCY: 2.21447 cycles
LLC AVERAGE dtMISS LATENCY: 7.9245 cycles
LLC PAGE CROSSINGS (TLB HIT):         0 
LLC PAGE CROSSINGS (TLB MISS):         0 
LLC AVERAGE MISS LATENCY: 161.957 cycles

PageTableWalker TOTAL       ACCESS:     103352  
PageTableWalker AVERAGE LATENCY: 4.343 cycles
PageTableWalker TOTAL LATENCY: 448857 cycles

DRAM Statistics
Channel 0
 RQ ROW_BUFFER_HIT:     333060
  ROW_BUFFER_MISS:     927370
 AVG DBUS CONGESTED CYCLE:    3.63398
 WQ ROW_BUFFER_HIT:      32472
  ROW_BUFFER_MISS:      33273  FULL:          0

