last_page:0x200000000000000
VMEM_RES_CAP:0x100000
PAGE_SIZE:4096
LOG2_PAGE_SIZE:12
LOG2_PAGE_TABLE_SIZE:9
page_table_levels:5
WARNING: physical memory size is smaller than virtual memory size
FDiP enabled with aggresivity 16

*** ChampSim Multicore Out-of-Order Simulator ***

Warmup Instructions: 50000000
Simulation Instructions: 100000000
Number of CPUs: 1
Small page size: 4096
Large page size: 2097152

CPU 0 Bimodal branch predictor
Basic BTB sets: 1024 ways: 8 indirect buffer size: 4096 RAS size: 64
Instruction page size distrubution: 0
Loading instruction page size distribution from /home/bsc/bsc018186/scratch/itp_asplos25_AE/dump/srv623_ap.pdst
Data page size distrubution: 0
Loading data page size distribution from /home/bsc/bsc018186/scratch/itp_asplos25_AE/dump/srv623_ap.pdst
cpu0_L2C IP-based stride prefetcher
cpu0_L1D next line prefetcher
cpu0_STLB using iTP with max lru@8
cpu0_STLB using iTP with instr@0 and data@2
Init sat counter with 3 bits (max:50).
cpu0_L1I next line prefetcher
Off-chip DRAM Size: 4 GiB Channels: 1 Width: 64-bit Data Rate: 3200 MT/s
Heartbeat CPU 0 instructions: 10000000 cycles: 2500413 heartbeat IPC: 3.99934 cumulative IPC: 3.99934 (Simulation time: 0 hr 0 min 38 sec) 
Heartbeat CPU 0 instructions: 20000000 cycles: 5000593 heartbeat IPC: 3.99972 cumulative IPC: 3.99953 (Simulation time: 0 hr 1 min 18 sec) 
Heartbeat CPU 0 instructions: 30000002 cycles: 7500793 heartbeat IPC: 3.99969 cumulative IPC: 3.99958 (Simulation time: 0 hr 1 min 59 sec) 
Heartbeat CPU 0 instructions: 40000001 cycles: 10001081 heartbeat IPC: 3.99954 cumulative IPC: 3.99957 (Simulation time: 0 hr 2 min 39 sec) 
Heartbeat CPU 0 instructions: 50000000 cycles: 12501379 heartbeat IPC: 3.99953 cumulative IPC: 3.99956 (Simulation time: 0 hr 3 min 20 sec) 
Warmup finished CPU 0 instructions: 50000000 cycles: 12501380 cumulative IPC: 3.99956 (Simulation time: 0 hr 3 min 20 sec) 

Warmup complete CPU 0 instructions: 50000000 cycles: 12501380 (Simulation time: 0 hr 3 min 20 sec) 

Heartbeat CPU 0 instructions: 60000000 cycles: 27255598 heartbeat IPC: 0.677773 cumulative IPC: 0.677773 (Simulation time: 0 hr 4 min 25 sec) 
Heartbeat CPU 0 instructions: 70000000 cycles: 42684459 heartbeat IPC: 0.648136 cumulative IPC: 0.662623 (Simulation time: 0 hr 5 min 31 sec) 
Heartbeat CPU 0 instructions: 80000000 cycles: 58448058 heartbeat IPC: 0.634373 cumulative IPC: 0.652931 (Simulation time: 0 hr 6 min 37 sec) 
Heartbeat CPU 0 instructions: 90000000 cycles: 72564386 heartbeat IPC: 0.7084 cumulative IPC: 0.665968 (Simulation time: 0 hr 7 min 40 sec) 
Heartbeat CPU 0 instructions: 100000001 cycles: 87177837 heartbeat IPC: 0.684302 cumulative IPC: 0.669556 (Simulation time: 0 hr 8 min 44 sec) 
*** Reached end of trace: /gpfs/projects/bsc18/MN4/bsc18/romol/ChampSim/traces/qualcomm_srv/srv623_ap.champsimtrace.xz
Heartbeat CPU 0 instructions: 110000003 cycles: 102129354 heartbeat IPC: 0.668829 cumulative IPC: 0.669434 (Simulation time: 0 hr 9 min 50 sec) 
Heartbeat CPU 0 instructions: 120000002 cycles: 117632718 heartbeat IPC: 0.645022 cumulative IPC: 0.665834 (Simulation time: 0 hr 10 min 56 sec) 
Heartbeat CPU 0 instructions: 130000002 cycles: 131956455 heartbeat IPC: 0.698142 cumulative IPC: 0.669708 (Simulation time: 0 hr 12 min 1 sec) 
Heartbeat CPU 0 instructions: 140000000 cycles: 147528049 heartbeat IPC: 0.642195 cumulative IPC: 0.666535 (Simulation time: 0 hr 13 min 7 sec) 
Heartbeat CPU 0 instructions: 150000000 cycles: 162312512 heartbeat IPC: 0.676386 cumulative IPC: 0.667508 (Simulation time: 0 hr 14 min 12 sec) 
Simulation finished CPU 0 instructions: 100000000 cycles: 149811133 cumulative IPC: 0.667508 (Simulation time: 0 hr 14 min 12 sec) 

Simulation complete CPU 0 instructions: 100000000 cycles: 149811133 (Simulation time: 0 hr 14 min 12 sec) 


ChampSim completed all CPUs

Saving instructions large page distribution to /home/bsc/bsc018186/scratch/itp_asplos25_AE/dump/srv623_ap.pdst...
Saving data large page distribution to /home/bsc/bsc018186/scratch/itp_asplos25_AE/dump/srv623_ap.pdst...
=== Simulation ===
CPU 0 runs /gpfs/projects/bsc18/MN4/bsc18/romol/ChampSim/traces/qualcomm_srv/srv623_ap.champsimtrace.xz

Region of Interest Statistics

CPU 0 cumulative IPC: 0.667508 instructions: 100000000 cycles: 149811133
CPU 0 Branch Prediction Accuracy: 83.4241% MPKI: 29.6363 Average ROB Occupancy at Mispredict: 13.0305
Branch type MPKI
BRANCH_DIRECT_JUMP: 1.01919
BRANCH_INDIRECT: 15.269
BRANCH_CONDITIONAL: 9.6814
BRANCH_DIRECT_CALL: 1.8327
BRANCH_INDIRECT_CALL: 0.503631
BRANCH_RETURN: 1.33037

Instructions large pages: 0
Instructions small pages: 11492
Large page distribution for instructions: 0%

Data large pages: 0
Data small pages: 10479
Large page distribution for data: 0%

cpu0_L1I TOTAL       ACCESS:   34682813  HIT:   26913622  MISS:    7769191  iACCESS:   34682813  iHIT:   26913622  iMISS:    7769191  dACCESS:          0  dHIT:          0  dMISS:          0  itACCESS:          0  itHIT:          0  itMISS:          0  dtACCESS:          0  dtHIT:          0  dtMISS:          0
cpu0_L1I LOAD         ACCESS:   10194182  HIT:    8002500  MISS:    2191682  iACCESS:   10194182  iHIT:    8002500  iMISS:    2191682  dACCESS:          0  dHIT:          0  dMISS:          0  itACCESS:          0  itHIT:          0  itMISS:          0  dtACCESS:          0  dtHIT:          0  dtMISS:          0
cpu0_L1I RFO          ACCESS:          0  HIT:          0  MISS:          0  iACCESS:          0  iHIT:          0  iMISS:          0  dACCESS:          0  dHIT:          0  dMISS:          0  itACCESS:          0  itHIT:          0  itMISS:          0  dtACCESS:          0  dtHIT:          0  dtMISS:          0
cpu0_L1I PREFETCH     ACCESS:   24488631  HIT:   18911122  MISS:    5577509  iACCESS:   24488631  iHIT:   18911122  iMISS:    5577509  dACCESS:          0  dHIT:          0  dMISS:          0  itACCESS:          0  itHIT:          0  itMISS:          0  dtACCESS:          0  dtHIT:          0  dtMISS:          0
cpu0_L1I WRITE        ACCESS:          0  HIT:          0  MISS:          0  iACCESS:          0  iHIT:          0  iMISS:          0  dACCESS:          0  dHIT:          0  dMISS:          0  itACCESS:          0  itHIT:          0  itMISS:          0  dtACCESS:          0  dtHIT:          0  dtMISS:          0
cpu0_L1I TRANSLATION  ACCESS:          0  HIT:          0  MISS:          0  iACCESS:          0  iHIT:          0  iMISS:          0  dACCESS:          0  dHIT:          0  dMISS:          0  itACCESS:          0  itHIT:          0  itMISS:          0  dtACCESS:          0  dtHIT:          0  dtMISS:          0
cpu0_L1I PREFETCH  REQUESTED:   27072720  ISSUED:   27072720  CROSSED:          0  USEFUL:    1885709  USELESS:     625596
cpu0_L1I AVERAGE iMISS LATENCY: 12.9181 cycles
cpu0_L1I AVERAGE dMISS LATENCY: 0 cycles
cpu0_L1I AVERAGE itMISS LATENCY: 0 cycles
cpu0_L1I AVERAGE dtMISS LATENCY: 0 cycles
cpu0_L1I PAGE CROSSINGS (TLB HIT):         0 
cpu0_L1I PAGE CROSSINGS (TLB MISS):         0 
cpu0_L1I AVERAGE MISS LATENCY: 12.9181 cycles
cpu0_ITLB TOTAL       ACCESS:   28972383  HIT:   26990605  MISS:    1981778  iACCESS:   28972383  iHIT:   26990605  iMISS:    1981778  dACCESS:          0  dHIT:          0  dMISS:          0  itACCESS:          0  itHIT:          0  itMISS:          0  dtACCESS:          0  dtHIT:          0  dtMISS:          0
cpu0_ITLB LOAD         ACCESS:   28972383  HIT:   26990605  MISS:    1981778  iACCESS:   28972383  iHIT:   26990605  iMISS:    1981778  dACCESS:          0  dHIT:          0  dMISS:          0  itACCESS:          0  itHIT:          0  itMISS:          0  dtACCESS:          0  dtHIT:          0  dtMISS:          0
cpu0_ITLB RFO          ACCESS:          0  HIT:          0  MISS:          0  iACCESS:          0  iHIT:          0  iMISS:          0  dACCESS:          0  dHIT:          0  dMISS:          0  itACCESS:          0  itHIT:          0  itMISS:          0  dtACCESS:          0  dtHIT:          0  dtMISS:          0
cpu0_ITLB PREFETCH     ACCESS:          0  HIT:          0  MISS:          0  iACCESS:          0  iHIT:          0  iMISS:          0  dACCESS:          0  dHIT:          0  dMISS:          0  itACCESS:          0  itHIT:          0  itMISS:          0  dtACCESS:          0  dtHIT:          0  dtMISS:          0
cpu0_ITLB WRITE        ACCESS:          0  HIT:          0  MISS:          0  iACCESS:          0  iHIT:          0  iMISS:          0  dACCESS:          0  dHIT:          0  dMISS:          0  itACCESS:          0  itHIT:          0  itMISS:          0  dtACCESS:          0  dtHIT:          0  dtMISS:          0
cpu0_ITLB TRANSLATION  ACCESS:          0  HIT:          0  MISS:          0  iACCESS:          0  iHIT:          0  iMISS:          0  dACCESS:          0  dHIT:          0  dMISS:          0  itACCESS:          0  itHIT:          0  itMISS:          0  dtACCESS:          0  dtHIT:          0  dtMISS:          0
cpu0_ITLB PREFETCH  REQUESTED:          0  ISSUED:          0  CROSSED:          0  USEFUL:     320499  USELESS:      67248
cpu0_ITLB AVERAGE iMISS LATENCY: 2.1966 cycles
cpu0_ITLB AVERAGE dMISS LATENCY: 0 cycles
cpu0_ITLB AVERAGE itMISS LATENCY: 0 cycles
cpu0_ITLB AVERAGE dtMISS LATENCY: 0 cycles
cpu0_ITLB PAGE CROSSINGS (TLB HIT):         0 
cpu0_ITLB PAGE CROSSINGS (TLB MISS):         0 
cpu0_ITLB AVERAGE MISS LATENCY: 2.1966 cycles
cpu0_DTLB TOTAL       ACCESS:   27694365  HIT:   25613650  MISS:    2080715  iACCESS:          0  iHIT:          0  iMISS:          0  dACCESS:   27694365  dHIT:   25613650  dMISS:    2080715  itACCESS:          0  itHIT:          0  itMISS:          0  dtACCESS:          0  dtHIT:          0  dtMISS:          0
cpu0_DTLB LOAD         ACCESS:   27694365  HIT:   25613650  MISS:    2080715  iACCESS:          0  iHIT:          0  iMISS:          0  dACCESS:   27694365  dHIT:   25613650  dMISS:    2080715  itACCESS:          0  itHIT:          0  itMISS:          0  dtACCESS:          0  dtHIT:          0  dtMISS:          0
cpu0_DTLB RFO          ACCESS:          0  HIT:          0  MISS:          0  iACCESS:          0  iHIT:          0  iMISS:          0  dACCESS:          0  dHIT:          0  dMISS:          0  itACCESS:          0  itHIT:          0  itMISS:          0  dtACCESS:          0  dtHIT:          0  dtMISS:          0
cpu0_DTLB PREFETCH     ACCESS:          0  HIT:          0  MISS:          0  iACCESS:          0  iHIT:          0  iMISS:          0  dACCESS:          0  dHIT:          0  dMISS:          0  itACCESS:          0  itHIT:          0  itMISS:          0  dtACCESS:          0  dtHIT:          0  dtMISS:          0
cpu0_DTLB WRITE        ACCESS:          0  HIT:          0  MISS:          0  iACCESS:          0  iHIT:          0  iMISS:          0  dACCESS:          0  dHIT:          0  dMISS:          0  itACCESS:          0  itHIT:          0  itMISS:          0  dtACCESS:          0  dtHIT:          0  dtMISS:          0
cpu0_DTLB TRANSLATION  ACCESS:          0  HIT:          0  MISS:          0  iACCESS:          0  iHIT:          0  iMISS:          0  dACCESS:          0  dHIT:          0  dMISS:          0  itACCESS:          0  itHIT:          0  itMISS:          0  dtACCESS:          0  dtHIT:          0  dtMISS:          0
cpu0_DTLB PREFETCH  REQUESTED:          0  ISSUED:          0  CROSSED:          0  USEFUL:          0  USELESS:          0
cpu0_DTLB AVERAGE iMISS LATENCY: 0 cycles
cpu0_DTLB AVERAGE dMISS LATENCY: 16.4582 cycles
cpu0_DTLB AVERAGE itMISS LATENCY: 0 cycles
cpu0_DTLB AVERAGE dtMISS LATENCY: 0 cycles
cpu0_DTLB PAGE CROSSINGS (TLB HIT):         0 
cpu0_DTLB PAGE CROSSINGS (TLB MISS):         0 
cpu0_DTLB AVERAGE MISS LATENCY: 16.4582 cycles
cpu0_STLB TOTAL       ACCESS:    1613972  HIT:    1469253  MISS:     144719  iACCESS:     387750  iHIT:     378783  iMISS:       8967  dACCESS:    1226222  dHIT:    1090470  dMISS:     135752  itACCESS:          0  itHIT:          0  itMISS:          0  dtACCESS:          0  dtHIT:          0  dtMISS:          0
cpu0_STLB LOAD         ACCESS:    1613972  HIT:    1469253  MISS:     144719  iACCESS:     387750  iHIT:     378783  iMISS:       8967  dACCESS:    1226222  dHIT:    1090470  dMISS:     135752  itACCESS:          0  itHIT:          0  itMISS:          0  dtACCESS:          0  dtHIT:          0  dtMISS:          0
cpu0_STLB RFO          ACCESS:          0  HIT:          0  MISS:          0  iACCESS:          0  iHIT:          0  iMISS:          0  dACCESS:          0  dHIT:          0  dMISS:          0  itACCESS:          0  itHIT:          0  itMISS:          0  dtACCESS:          0  dtHIT:          0  dtMISS:          0
cpu0_STLB PREFETCH     ACCESS:          0  HIT:          0  MISS:          0  iACCESS:          0  iHIT:          0  iMISS:          0  dACCESS:          0  dHIT:          0  dMISS:          0  itACCESS:          0  itHIT:          0  itMISS:          0  dtACCESS:          0  dtHIT:          0  dtMISS:          0
cpu0_STLB WRITE        ACCESS:          0  HIT:          0  MISS:          0  iACCESS:          0  iHIT:          0  iMISS:          0  dACCESS:          0  dHIT:          0  dMISS:          0  itACCESS:          0  itHIT:          0  itMISS:          0  dtACCESS:          0  dtHIT:          0  dtMISS:          0
cpu0_STLB TRANSLATION  ACCESS:          0  HIT:          0  MISS:          0  iACCESS:          0  iHIT:          0  iMISS:          0  dACCESS:          0  dHIT:          0  dMISS:          0  itACCESS:          0  itHIT:          0  itMISS:          0  dtACCESS:          0  dtHIT:          0  dtMISS:          0
cpu0_STLB PREFETCH  REQUESTED:          0  ISSUED:          0  CROSSED:          0  USEFUL:          0  USELESS:          0
cpu0_STLB AVERAGE iMISS LATENCY: 9.26775 cycles
cpu0_STLB AVERAGE dMISS LATENCY: 168.861 cycles
cpu0_STLB AVERAGE itMISS LATENCY: 0 cycles
cpu0_STLB AVERAGE dtMISS LATENCY: 0 cycles
cpu0_STLB PAGE CROSSINGS (TLB HIT):         0 
cpu0_STLB PAGE CROSSINGS (TLB MISS):         0 
cpu0_STLB AVERAGE MISS LATENCY: 178.129 cycles
cpu0_L1D TOTAL       ACCESS:   41405538  HIT:   38000775  MISS:    3404763  iACCESS:          0  iHIT:          0  iMISS:          0  dACCESS:   41194693  dHIT:   37987257  dMISS:    3207436  itACCESS:      11257  itHIT:       1088  itMISS:      10169  dtACCESS:     199588  dtHIT:      12430  dtMISS:     187158
cpu0_L1D LOAD         ACCESS:   18882819  HIT:   17418504  MISS:    1464315  iACCESS:          0  iHIT:          0  iMISS:          0  dACCESS:   18882819  dHIT:   17418504  dMISS:    1464315  itACCESS:          0  itHIT:          0  itMISS:          0  dtACCESS:          0  dtHIT:          0  dtMISS:          0
cpu0_L1D RFO          ACCESS:          0  HIT:          0  MISS:          0  iACCESS:          0  iHIT:          0  iMISS:          0  dACCESS:          0  dHIT:          0  dMISS:          0  itACCESS:          0  itHIT:          0  itMISS:          0  dtACCESS:          0  dtHIT:          0  dtMISS:          0
cpu0_L1D PREFETCH     ACCESS:   12125431  HIT:   10819524  MISS:    1305907  iACCESS:          0  iHIT:          0  iMISS:          0  dACCESS:   12125431  dHIT:   10819524  dMISS:    1305907  itACCESS:          0  itHIT:          0  itMISS:          0  dtACCESS:          0  dtHIT:          0  dtMISS:          0
cpu0_L1D WRITE        ACCESS:   10186443  HIT:    9749229  MISS:     437214  iACCESS:          0  iHIT:          0  iMISS:          0  dACCESS:   10186443  dHIT:    9749229  dMISS:     437214  itACCESS:          0  itHIT:          0  itMISS:          0  dtACCESS:          0  dtHIT:          0  dtMISS:          0
cpu0_L1D TRANSLATION  ACCESS:     210845  HIT:      13518  MISS:     197327  iACCESS:          0  iHIT:          0  iMISS:          0  dACCESS:          0  dHIT:          0  dMISS:          0  itACCESS:      11257  itHIT:       1088  itMISS:      10169  dtACCESS:     199588  dtHIT:      12430  dtMISS:     187158
cpu0_L1D PREFETCH  REQUESTED:   18882819  ISSUED:   17000475  CROSSED:          0  USEFUL:     303442  USELESS:     694546
cpu0_L1D AVERAGE iMISS LATENCY: 0 cycles
cpu0_L1D AVERAGE dMISS LATENCY: 33.3998 cycles
cpu0_L1D AVERAGE itMISS LATENCY: 0.365822 cycles
cpu0_L1D AVERAGE dtMISS LATENCY: 6.32212 cycles
cpu0_L1D PAGE CROSSINGS (TLB HIT):         0 
cpu0_L1D PAGE CROSSINGS (TLB MISS):         0 
cpu0_L1D AVERAGE MISS LATENCY: 40.0878 cycles
cpu0_L2C TOTAL       ACCESS:    6888633  HIT:    4036473  MISS:    2852160  iACCESS:    3268740  iHIT:    2203517  iMISS:    1065223  dACCESS:    3428872  dHIT:    1800321  dMISS:    1628551  itACCESS:      10043  itHIT:       1794  itMISS:       8249  dtACCESS:     180978  dtHIT:      30841  dtMISS:     150137
cpu0_L2C LOAD         ACCESS:    1715638  HIT:    1044624  MISS:     671014  iACCESS:     791614  iHIT:     561225  iMISS:     230389  dACCESS:     924024  dHIT:     483399  dMISS:     440625  itACCESS:          0  itHIT:          0  itMISS:          0  dtACCESS:          0  dtHIT:          0  dtMISS:          0
cpu0_L2C RFO          ACCESS:     155621  HIT:      71937  MISS:      83684  iACCESS:          0  iHIT:          0  iMISS:          0  dACCESS:     155621  dHIT:      71937  dMISS:      83684  itACCESS:          0  itHIT:          0  itMISS:          0  dtACCESS:          0  dtHIT:          0  dtMISS:          0
cpu0_L2C PREFETCH     ACCESS:    4543856  HIT:    2605327  MISS:    1938529  iACCESS:    2477126  iHIT:    1642292  iMISS:     834834  dACCESS:    2066730  dHIT:     963035  dMISS:    1103695  itACCESS:          0  itHIT:          0  itMISS:          0  dtACCESS:          0  dtHIT:          0  dtMISS:          0
cpu0_L2C WRITE        ACCESS:     282497  HIT:     281950  MISS:        547  iACCESS:          0  iHIT:          0  iMISS:          0  dACCESS:     282497  dHIT:     281950  dMISS:        547  itACCESS:          0  itHIT:          0  itMISS:          0  dtACCESS:          0  dtHIT:          0  dtMISS:          0
cpu0_L2C TRANSLATION  ACCESS:     191021  HIT:      32635  MISS:     158386  iACCESS:          0  iHIT:          0  iMISS:          0  dACCESS:          0  dHIT:          0  dMISS:          0  itACCESS:      10043  itHIT:       1794  itMISS:       8249  dtACCESS:     180978  dtHIT:      30841  dtMISS:     150137
cpu0_L2C PREFETCH  REQUESTED:    1317008  ISSUED:    1317008  CROSSED:          0  USEFUL:     299704  USELESS:     227364
cpu0_L2C AVERAGE iMISS LATENCY: 24.8737 cycles
cpu0_L2C AVERAGE dMISS LATENCY: 46.9349 cycles
cpu0_L2C AVERAGE itMISS LATENCY: 0.402043 cycles
cpu0_L2C AVERAGE dtMISS LATENCY: 6.91858 cycles
cpu0_L2C PAGE CROSSINGS (TLB HIT):         0 
cpu0_L2C PAGE CROSSINGS (TLB MISS):         0 
cpu0_L2C AVERAGE MISS LATENCY: 79.1292 cycles
LLC TOTAL       ACCESS:    2873323  HIT:    1772701  MISS:    1100622  iACCESS:    1010324  iHIT:     658296  iMISS:     352028  dACCESS:    1704613  dHIT:    1055276  dMISS:     649337  itACCESS:       8249  itHIT:       2638  itMISS:       5611  dtACCESS:     150137  dtHIT:      56491  dtMISS:      93646
LLC LOAD         ACCESS:     669621  HIT:     428532  MISS:     241089  iACCESS:     229340  iHIT:     151962  iMISS:      77378  dACCESS:     440281  dHIT:     276570  dMISS:     163711  itACCESS:          0  itHIT:          0  itMISS:          0  dtACCESS:          0  dtHIT:          0  dtMISS:          0
LLC RFO          ACCESS:      83673  HIT:      42954  MISS:      40719  iACCESS:          0  iHIT:          0  iMISS:          0  dACCESS:      83673  dHIT:      42954  dMISS:      40719  itACCESS:          0  itHIT:          0  itMISS:          0  dtACCESS:          0  dtHIT:          0  dtMISS:          0
LLC PREFETCH     ACCESS:    1827079  HIT:    1113962  MISS:     713117  iACCESS:     780984  iHIT:     506334  iMISS:     274650  dACCESS:    1046095  dHIT:     607628  dMISS:     438467  itACCESS:          0  itHIT:          0  itMISS:          0  dtACCESS:          0  dtHIT:          0  dtMISS:          0
LLC WRITE        ACCESS:     134564  HIT:     128124  MISS:       6440  iACCESS:          0  iHIT:          0  iMISS:          0  dACCESS:     134564  dHIT:     128124  dMISS:       6440  itACCESS:          0  itHIT:          0  itMISS:          0  dtACCESS:          0  dtHIT:          0  dtMISS:          0
LLC TRANSLATION  ACCESS:     158386  HIT:      59129  MISS:      99257  iACCESS:          0  iHIT:          0  iMISS:          0  dACCESS:          0  dHIT:          0  dMISS:          0  itACCESS:       8249  itHIT:       2638  itMISS:       5611  dtACCESS:     150137  dtHIT:      56491  dtMISS:      93646
LLC PREFETCH  REQUESTED:          0  ISSUED:          0  CROSSED:          0  USEFUL:          0  USELESS:          0
LLC AVERAGE iMISS LATENCY: 46.6095 cycles
LLC AVERAGE dMISS LATENCY: 94.0621 cycles
LLC AVERAGE itMISS LATENCY: 0.894827 cycles
LLC AVERAGE dtMISS LATENCY: 15.2588 cycles
LLC PAGE CROSSINGS (TLB HIT):         0 
LLC PAGE CROSSINGS (TLB MISS):         0 
LLC AVERAGE MISS LATENCY: 156.826 cycles

PageTableWalker TOTAL       ACCESS:      73326  
PageTableWalker AVERAGE LATENCY: 5.70336 cycles
PageTableWalker TOTAL LATENCY: 418204 cycles

DRAM Statistics
Channel 0
 RQ ROW_BUFFER_HIT:     306872
  ROW_BUFFER_MISS:     787239
 AVG DBUS CONGESTED CYCLE:    3.61377
 WQ ROW_BUFFER_HIT:      21952
  ROW_BUFFER_MISS:      21066  FULL:          0

