last_page:0x200000000000000
VMEM_RES_CAP:0x100000
PAGE_SIZE:4096
LOG2_PAGE_SIZE:12
LOG2_PAGE_TABLE_SIZE:9
page_table_levels:5
WARNING: physical memory size is smaller than virtual memory size
FDiP enabled with aggresivity 16

*** ChampSim Multicore Out-of-Order Simulator ***

Warmup Instructions: 50000000
Simulation Instructions: 100000000
Number of CPUs: 1
Small page size: 4096
Large page size: 2097152

CPU 0 Bimodal branch predictor
Basic BTB sets: 1024 ways: 8 indirect buffer size: 4096 RAS size: 64
Instruction page size distrubution: 0
Loading instruction page size distribution from /home/bsc/bsc018186/scratch/itp_asplos25_AE/dump/srv612_ap.pdst
Data page size distrubution: 0
Loading data page size distribution from /home/bsc/bsc018186/scratch/itp_asplos25_AE/dump/srv612_ap.pdst
cpu0_L2C IP-based stride prefetcher
cpu0_L2C is using PTP replacement policy:
	TLB_STRESS_THRESHOLD:0
	PTE_EVICTION_RATIO:0
cpu0_L1D next line prefetcher
cpu0_L1I next line prefetcher
Off-chip DRAM Size: 4 GiB Channels: 1 Width: 64-bit Data Rate: 3200 MT/s
Heartbeat CPU 0 instructions: 10000004 cycles: 2781363 heartbeat IPC: 3.59537 cumulative IPC: 3.59537 (Simulation time: 0 hr 0 min 36 sec) 
Heartbeat CPU 0 instructions: 20000003 cycles: 5759353 heartbeat IPC: 3.35797 cumulative IPC: 3.47262 (Simulation time: 0 hr 1 min 15 sec) 
Heartbeat CPU 0 instructions: 30000002 cycles: 8545500 heartbeat IPC: 3.58919 cumulative IPC: 3.51062 (Simulation time: 0 hr 1 min 49 sec) 
Heartbeat CPU 0 instructions: 40000000 cycles: 11194464 heartbeat IPC: 3.77506 cumulative IPC: 3.5732 (Simulation time: 0 hr 2 min 23 sec) 
Heartbeat CPU 0 instructions: 50000000 cycles: 13718786 heartbeat IPC: 3.96146 cumulative IPC: 3.64464 (Simulation time: 0 hr 2 min 57 sec) 
Warmup finished CPU 0 instructions: 50000000 cycles: 13718787 cumulative IPC: 3.64464 (Simulation time: 0 hr 2 min 57 sec) 

Warmup complete CPU 0 instructions: 50000000 cycles: 13718787 (Simulation time: 0 hr 2 min 57 sec) 

Heartbeat CPU 0 instructions: 60000001 cycles: 55492897 heartbeat IPC: 0.239383 cumulative IPC: 0.239383 (Simulation time: 0 hr 5 min 2 sec) 
Heartbeat CPU 0 instructions: 70000003 cycles: 109889295 heartbeat IPC: 0.183836 cumulative IPC: 0.207964 (Simulation time: 0 hr 7 min 38 sec) 
Heartbeat CPU 0 instructions: 80000000 cycles: 142796116 heartbeat IPC: 0.303889 cumulative IPC: 0.232419 (Simulation time: 0 hr 9 min 24 sec) 
Heartbeat CPU 0 instructions: 90000003 cycles: 171337682 heartbeat IPC: 0.350367 cumulative IPC: 0.253777 (Simulation time: 0 hr 11 min 1 sec) 
Heartbeat CPU 0 instructions: 100000001 cycles: 194563534 heartbeat IPC: 0.430555 cumulative IPC: 0.276481 (Simulation time: 0 hr 12 min 26 sec) 
*** Reached end of trace: /gpfs/projects/bsc18/MN4/bsc18/romol/ChampSim/traces/qualcomm_srv/srv612_ap.champsimtrace.xz
Heartbeat CPU 0 instructions: 110000000 cycles: 208488288 heartbeat IPC: 0.718146 cumulative IPC: 0.308057 (Simulation time: 0 hr 13 min 35 sec) 
Heartbeat CPU 0 instructions: 120000004 cycles: 217524890 heartbeat IPC: 1.10662 cumulative IPC: 0.343464 (Simulation time: 0 hr 14 min 33 sec) 
Heartbeat CPU 0 instructions: 130000004 cycles: 225798185 heartbeat IPC: 1.20871 cumulative IPC: 0.377218 (Simulation time: 0 hr 15 min 26 sec) 
Heartbeat CPU 0 instructions: 140000000 cycles: 233400296 heartbeat IPC: 1.31543 cumulative IPC: 0.409685 (Simulation time: 0 hr 16 min 16 sec) 
Heartbeat CPU 0 instructions: 150000000 cycles: 254271147 heartbeat IPC: 0.479138 cumulative IPC: 0.41571 (Simulation time: 0 hr 17 min 34 sec) 
Simulation finished CPU 0 instructions: 100000000 cycles: 240552361 cumulative IPC: 0.41571 (Simulation time: 0 hr 17 min 34 sec) 

Simulation complete CPU 0 instructions: 100000000 cycles: 240552361 (Simulation time: 0 hr 17 min 34 sec) 


ChampSim completed all CPUs

Saving instructions large page distribution to /home/bsc/bsc018186/scratch/itp_asplos25_AE/dump/srv612_ap.pdst...
Saving data large page distribution to /home/bsc/bsc018186/scratch/itp_asplos25_AE/dump/srv612_ap.pdst...
=== Simulation ===
CPU 0 runs /gpfs/projects/bsc18/MN4/bsc18/romol/ChampSim/traces/qualcomm_srv/srv612_ap.champsimtrace.xz

Region of Interest Statistics

CPU 0 cumulative IPC: 0.41571 instructions: 100000000 cycles: 240552361
CPU 0 Branch Prediction Accuracy: 96.6997% MPKI: 7.15989 Average ROB Occupancy at Mispredict: 87.0362
Branch type MPKI
BRANCH_DIRECT_JUMP: 0.0386401
BRANCH_INDIRECT: 3.27509
BRANCH_CONDITIONAL: 3.54837
BRANCH_DIRECT_CALL: 0.0661401
BRANCH_INDIRECT_CALL: 0.173461
BRANCH_RETURN: 0.0582001

Instructions large pages: 0
Instructions small pages: 1273
Large page distribution for instructions: 0%

Data large pages: 0
Data small pages: 21910
Large page distribution for data: 0%

cpu0_L1I TOTAL       ACCESS:   15118469  HIT:   14638585  MISS:     479884  iACCESS:   15118469  iHIT:   14638585  iMISS:     479884  dACCESS:          0  dHIT:          0  dMISS:          0  itACCESS:          0  itHIT:          0  itMISS:          0  dtACCESS:          0  dtHIT:          0  dtMISS:          0
cpu0_L1I LOAD         ACCESS:     881221  HIT:     737018  MISS:     144203  iACCESS:     881221  iHIT:     737018  iMISS:     144203  dACCESS:          0  dHIT:          0  dMISS:          0  itACCESS:          0  itHIT:          0  itMISS:          0  dtACCESS:          0  dtHIT:          0  dtMISS:          0
cpu0_L1I RFO          ACCESS:          0  HIT:          0  MISS:          0  iACCESS:          0  iHIT:          0  iMISS:          0  dACCESS:          0  dHIT:          0  dMISS:          0  itACCESS:          0  itHIT:          0  itMISS:          0  dtACCESS:          0  dtHIT:          0  dtMISS:          0
cpu0_L1I PREFETCH     ACCESS:   14237248  HIT:   13901567  MISS:     335681  iACCESS:   14237248  iHIT:   13901567  iMISS:     335681  dACCESS:          0  dHIT:          0  dMISS:          0  itACCESS:          0  itHIT:          0  itMISS:          0  dtACCESS:          0  dtHIT:          0  dtMISS:          0
cpu0_L1I WRITE        ACCESS:          0  HIT:          0  MISS:          0  iACCESS:          0  iHIT:          0  iMISS:          0  dACCESS:          0  dHIT:          0  dMISS:          0  itACCESS:          0  itHIT:          0  itMISS:          0  dtACCESS:          0  dtHIT:          0  dtMISS:          0
cpu0_L1I TRANSLATION  ACCESS:          0  HIT:          0  MISS:          0  iACCESS:          0  iHIT:          0  iMISS:          0  dACCESS:          0  dHIT:          0  dMISS:          0  itACCESS:          0  itHIT:          0  itMISS:          0  dtACCESS:          0  dtHIT:          0  dtMISS:          0
cpu0_L1I PREFETCH  REQUESTED:   14440809  ISSUED:   14435540  CROSSED:          0  USEFUL:      95294  USELESS:      35747
cpu0_L1I AVERAGE iMISS LATENCY: 20.072 cycles
cpu0_L1I AVERAGE dMISS LATENCY: 0 cycles
cpu0_L1I AVERAGE itMISS LATENCY: 0 cycles
cpu0_L1I AVERAGE dtMISS LATENCY: 0 cycles
cpu0_L1I PAGE CROSSINGS (TLB HIT):         0 
cpu0_L1I PAGE CROSSINGS (TLB MISS):         0 
cpu0_L1I AVERAGE MISS LATENCY: 20.072 cycles
cpu0_ITLB TOTAL       ACCESS:   13526234  HIT:   13406572  MISS:     119662  iACCESS:   13526234  iHIT:   13406572  iMISS:     119662  dACCESS:          0  dHIT:          0  dMISS:          0  itACCESS:          0  itHIT:          0  itMISS:          0  dtACCESS:          0  dtHIT:          0  dtMISS:          0
cpu0_ITLB LOAD         ACCESS:   13526234  HIT:   13406572  MISS:     119662  iACCESS:   13526234  iHIT:   13406572  iMISS:     119662  dACCESS:          0  dHIT:          0  dMISS:          0  itACCESS:          0  itHIT:          0  itMISS:          0  dtACCESS:          0  dtHIT:          0  dtMISS:          0
cpu0_ITLB RFO          ACCESS:          0  HIT:          0  MISS:          0  iACCESS:          0  iHIT:          0  iMISS:          0  dACCESS:          0  dHIT:          0  dMISS:          0  itACCESS:          0  itHIT:          0  itMISS:          0  dtACCESS:          0  dtHIT:          0  dtMISS:          0
cpu0_ITLB PREFETCH     ACCESS:          0  HIT:          0  MISS:          0  iACCESS:          0  iHIT:          0  iMISS:          0  dACCESS:          0  dHIT:          0  dMISS:          0  itACCESS:          0  itHIT:          0  itMISS:          0  dtACCESS:          0  dtHIT:          0  dtMISS:          0
cpu0_ITLB WRITE        ACCESS:          0  HIT:          0  MISS:          0  iACCESS:          0  iHIT:          0  iMISS:          0  dACCESS:          0  dHIT:          0  dMISS:          0  itACCESS:          0  itHIT:          0  itMISS:          0  dtACCESS:          0  dtHIT:          0  dtMISS:          0
cpu0_ITLB TRANSLATION  ACCESS:          0  HIT:          0  MISS:          0  iACCESS:          0  iHIT:          0  iMISS:          0  dACCESS:          0  dHIT:          0  dMISS:          0  itACCESS:          0  itHIT:          0  itMISS:          0  dtACCESS:          0  dtHIT:          0  dtMISS:          0
cpu0_ITLB PREFETCH  REQUESTED:          0  ISSUED:          0  CROSSED:          0  USEFUL:      16472  USELESS:       4111
cpu0_ITLB AVERAGE iMISS LATENCY: 5.21082 cycles
cpu0_ITLB AVERAGE dMISS LATENCY: 0 cycles
cpu0_ITLB AVERAGE itMISS LATENCY: 0 cycles
cpu0_ITLB AVERAGE dtMISS LATENCY: 0 cycles
cpu0_ITLB PAGE CROSSINGS (TLB HIT):         0 
cpu0_ITLB PAGE CROSSINGS (TLB MISS):         0 
cpu0_ITLB AVERAGE MISS LATENCY: 5.21082 cycles
cpu0_DTLB TOTAL       ACCESS:   27381413  HIT:   22603744  MISS:    4777669  iACCESS:          0  iHIT:          0  iMISS:          0  dACCESS:   27381413  dHIT:   22603744  dMISS:    4777669  itACCESS:          0  itHIT:          0  itMISS:          0  dtACCESS:          0  dtHIT:          0  dtMISS:          0
cpu0_DTLB LOAD         ACCESS:   27381413  HIT:   22603744  MISS:    4777669  iACCESS:          0  iHIT:          0  iMISS:          0  dACCESS:   27381413  dHIT:   22603744  dMISS:    4777669  itACCESS:          0  itHIT:          0  itMISS:          0  dtACCESS:          0  dtHIT:          0  dtMISS:          0
cpu0_DTLB RFO          ACCESS:          0  HIT:          0  MISS:          0  iACCESS:          0  iHIT:          0  iMISS:          0  dACCESS:          0  dHIT:          0  dMISS:          0  itACCESS:          0  itHIT:          0  itMISS:          0  dtACCESS:          0  dtHIT:          0  dtMISS:          0
cpu0_DTLB PREFETCH     ACCESS:          0  HIT:          0  MISS:          0  iACCESS:          0  iHIT:          0  iMISS:          0  dACCESS:          0  dHIT:          0  dMISS:          0  itACCESS:          0  itHIT:          0  itMISS:          0  dtACCESS:          0  dtHIT:          0  dtMISS:          0
cpu0_DTLB WRITE        ACCESS:          0  HIT:          0  MISS:          0  iACCESS:          0  iHIT:          0  iMISS:          0  dACCESS:          0  dHIT:          0  dMISS:          0  itACCESS:          0  itHIT:          0  itMISS:          0  dtACCESS:          0  dtHIT:          0  dtMISS:          0
cpu0_DTLB TRANSLATION  ACCESS:          0  HIT:          0  MISS:          0  iACCESS:          0  iHIT:          0  iMISS:          0  dACCESS:          0  dHIT:          0  dMISS:          0  itACCESS:          0  itHIT:          0  itMISS:          0  dtACCESS:          0  dtHIT:          0  dtMISS:          0
cpu0_DTLB PREFETCH  REQUESTED:          0  ISSUED:          0  CROSSED:          0  USEFUL:          0  USELESS:          0
cpu0_DTLB AVERAGE iMISS LATENCY: 0 cycles
cpu0_DTLB AVERAGE dMISS LATENCY: 6.81713 cycles
cpu0_DTLB AVERAGE itMISS LATENCY: 0 cycles
cpu0_DTLB AVERAGE dtMISS LATENCY: 0 cycles
cpu0_DTLB PAGE CROSSINGS (TLB HIT):         0 
cpu0_DTLB PAGE CROSSINGS (TLB MISS):         0 
cpu0_DTLB AVERAGE MISS LATENCY: 6.81713 cycles
cpu0_STLB TOTAL       ACCESS:    2948222  HIT:    2827210  MISS:     121012  iACCESS:      20584  iHIT:      16623  iMISS:       3961  dACCESS:    2927638  dHIT:    2810587  dMISS:     117051  itACCESS:          0  itHIT:          0  itMISS:          0  dtACCESS:          0  dtHIT:          0  dtMISS:          0
cpu0_STLB LOAD         ACCESS:    2948222  HIT:    2827210  MISS:     121012  iACCESS:      20584  iHIT:      16623  iMISS:       3961  dACCESS:    2927638  dHIT:    2810587  dMISS:     117051  itACCESS:          0  itHIT:          0  itMISS:          0  dtACCESS:          0  dtHIT:          0  dtMISS:          0
cpu0_STLB RFO          ACCESS:          0  HIT:          0  MISS:          0  iACCESS:          0  iHIT:          0  iMISS:          0  dACCESS:          0  dHIT:          0  dMISS:          0  itACCESS:          0  itHIT:          0  itMISS:          0  dtACCESS:          0  dtHIT:          0  dtMISS:          0
cpu0_STLB PREFETCH     ACCESS:          0  HIT:          0  MISS:          0  iACCESS:          0  iHIT:          0  iMISS:          0  dACCESS:          0  dHIT:          0  dMISS:          0  itACCESS:          0  itHIT:          0  itMISS:          0  dtACCESS:          0  dtHIT:          0  dtMISS:          0
cpu0_STLB WRITE        ACCESS:          0  HIT:          0  MISS:          0  iACCESS:          0  iHIT:          0  iMISS:          0  dACCESS:          0  dHIT:          0  dMISS:          0  itACCESS:          0  itHIT:          0  itMISS:          0  dtACCESS:          0  dtHIT:          0  dtMISS:          0
cpu0_STLB TRANSLATION  ACCESS:          0  HIT:          0  MISS:          0  iACCESS:          0  iHIT:          0  iMISS:          0  dACCESS:          0  dHIT:          0  dMISS:          0  itACCESS:          0  itHIT:          0  itMISS:          0  dtACCESS:          0  dtHIT:          0  dtMISS:          0
cpu0_STLB PREFETCH  REQUESTED:          0  ISSUED:          0  CROSSED:          0  USEFUL:          0  USELESS:          0
cpu0_STLB AVERAGE iMISS LATENCY: 3.79791 cycles
cpu0_STLB AVERAGE dMISS LATENCY: 72.6264 cycles
cpu0_STLB AVERAGE itMISS LATENCY: 0 cycles
cpu0_STLB AVERAGE dtMISS LATENCY: 0 cycles
cpu0_STLB PAGE CROSSINGS (TLB HIT):         0 
cpu0_STLB PAGE CROSSINGS (TLB MISS):         0 
cpu0_STLB AVERAGE MISS LATENCY: 76.4243 cycles
cpu0_L1D TOTAL       ACCESS:  156839148  HIT:   31977423  MISS:  124861725  iACCESS:          0  iHIT:          0  iMISS:          0  dACCESS:  156667195  dHIT:   31948955  dMISS:  124718240  itACCESS:       4560  itHIT:        570  itMISS:       3990  dtACCESS:     167393  dtHIT:      27898  dtMISS:     139495
cpu0_L1D LOAD         ACCESS:   69197523  HIT:   16697758  MISS:   52499765  iACCESS:          0  iHIT:          0  iMISS:          0  dACCESS:   69197523  dHIT:   16697758  dMISS:   52499765  itACCESS:          0  itHIT:          0  itMISS:          0  dtACCESS:          0  dtHIT:          0  dtMISS:          0
cpu0_L1D RFO          ACCESS:          0  HIT:          0  MISS:          0  iACCESS:          0  iHIT:          0  iMISS:          0  dACCESS:          0  dHIT:          0  dMISS:          0  itACCESS:          0  itHIT:          0  itMISS:          0  dtACCESS:          0  dtHIT:          0  dtMISS:          0
cpu0_L1D PREFETCH     ACCESS:   80998095  HIT:    9845565  MISS:   71152530  iACCESS:          0  iHIT:          0  iMISS:          0  dACCESS:   80998095  dHIT:    9845565  dMISS:   71152530  itACCESS:          0  itHIT:          0  itMISS:          0  dtACCESS:          0  dtHIT:          0  dtMISS:          0
cpu0_L1D WRITE        ACCESS:    6471577  HIT:    5405632  MISS:    1065945  iACCESS:          0  iHIT:          0  iMISS:          0  dACCESS:    6471577  dHIT:    5405632  dMISS:    1065945  itACCESS:          0  itHIT:          0  itMISS:          0  dtACCESS:          0  dtHIT:          0  dtMISS:          0
cpu0_L1D TRANSLATION  ACCESS:     171953  HIT:      28468  MISS:     143485  iACCESS:          0  iHIT:          0  iMISS:          0  dACCESS:          0  dHIT:          0  dMISS:          0  itACCESS:       4560  itHIT:        570  itMISS:       3990  dtACCESS:     167393  dtHIT:      27898  dtMISS:     139495
cpu0_L1D PREFETCH  REQUESTED:   69197523  ISSUED:   27649308  CROSSED:          0  USEFUL:     167432  USELESS:    1284271
cpu0_L1D AVERAGE iMISS LATENCY: 0 cycles
cpu0_L1D AVERAGE dMISS LATENCY: 17.6703 cycles
cpu0_L1D AVERAGE itMISS LATENCY: 0.00338109 cycles
cpu0_L1D AVERAGE dtMISS LATENCY: 0.0455277 cycles
cpu0_L1D PAGE CROSSINGS (TLB HIT):         0 
cpu0_L1D PAGE CROSSINGS (TLB MISS):         0 
cpu0_L1D AVERAGE MISS LATENCY: 17.7192 cycles
cpu0_L2C TOTAL       ACCESS:    6179468  HIT:    1364414  MISS:    4815054  iACCESS:     172735  iHIT:      66856  iMISS:     105879  dACCESS:    5932683  dHIT:    1277661  dMISS:    4655022  itACCESS:       3792  itHIT:       1934  itMISS:       1858  dtACCESS:      70258  dtHIT:      17963  dtMISS:      52295
cpu0_L2C LOAD         ACCESS:    3826219  HIT:     953348  MISS:    2872871  iACCESS:      43022  iHIT:      16669  iMISS:      26353  dACCESS:    3783197  dHIT:     936679  dMISS:    2846518  itACCESS:          0  itHIT:          0  itMISS:          0  dtACCESS:          0  dtHIT:          0  dtMISS:          0
cpu0_L2C RFO          ACCESS:     114007  HIT:      25971  MISS:      88036  iACCESS:          0  iHIT:          0  iMISS:          0  dACCESS:     114007  dHIT:      25971  dMISS:      88036  itACCESS:          0  itHIT:          0  itMISS:          0  dtACCESS:          0  dtHIT:          0  dtMISS:          0
cpu0_L2C PREFETCH     ACCESS:    2057883  HIT:     310378  MISS:    1747505  iACCESS:     129713  iHIT:      50187  iMISS:      79526  dACCESS:    1928170  dHIT:     260191  dMISS:    1667979  itACCESS:          0  itHIT:          0  itMISS:          0  dtACCESS:          0  dtHIT:          0  dtMISS:          0
cpu0_L2C WRITE        ACCESS:     107309  HIT:      54820  MISS:      52489  iACCESS:          0  iHIT:          0  iMISS:          0  dACCESS:     107309  dHIT:      54820  dMISS:      52489  itACCESS:          0  itHIT:          0  itMISS:          0  dtACCESS:          0  dtHIT:          0  dtMISS:          0
cpu0_L2C TRANSLATION  ACCESS:      74050  HIT:      19897  MISS:      54153  iACCESS:          0  iHIT:          0  iMISS:          0  dACCESS:          0  dHIT:          0  dMISS:          0  itACCESS:       3792  itHIT:       1934  itMISS:       1858  dtACCESS:      70258  dtHIT:      17963  dtMISS:      52295
cpu0_L2C PREFETCH  REQUESTED:     496096  ISSUED:     495061  CROSSED:          0  USEFUL:      67205  USELESS:     223210
cpu0_L2C AVERAGE iMISS LATENCY: 1.68397 cycles
cpu0_L2C AVERAGE dMISS LATENCY: 456.695 cycles
cpu0_L2C AVERAGE itMISS LATENCY: 0.0801794 cycles
cpu0_L2C AVERAGE dtMISS LATENCY: 1.03648 cycles
cpu0_L2C PAGE CROSSINGS (TLB HIT):         0 
cpu0_L2C PAGE CROSSINGS (TLB MISS):         0 
cpu0_L2C AVERAGE MISS LATENCY: 459.496 cycles
LLC TOTAL       ACCESS:    4624773  HIT:    2428165  MISS:    2196608  iACCESS:     103308  iHIT:      70569  iMISS:      32739  dACCESS:    4467312  dHIT:    2316678  dMISS:    2150634  itACCESS:       1858  itHIT:        239  itMISS:       1619  dtACCESS:      52295  dtHIT:      40679  dtMISS:      11616
LLC LOAD         ACCESS:    2870119  HIT:    1733356  MISS:    1136763  iACCESS:      26306  iHIT:      19051  iMISS:       7255  dACCESS:    2843813  dHIT:    1714305  dMISS:    1129508  itACCESS:          0  itHIT:          0  itMISS:          0  dtACCESS:          0  dtHIT:          0  dtMISS:          0
LLC RFO          ACCESS:      88026  HIT:       7723  MISS:      80303  iACCESS:          0  iHIT:          0  iMISS:          0  dACCESS:      88026  dHIT:       7723  dMISS:      80303  itACCESS:          0  itHIT:          0  itMISS:          0  dtACCESS:          0  dtHIT:          0  dtMISS:          0
LLC PREFETCH     ACCESS:    1519342  HIT:     554874  MISS:     964468  iACCESS:      77002  iHIT:      51518  iMISS:      25484  dACCESS:    1442340  dHIT:     503356  dMISS:     938984  itACCESS:          0  itHIT:          0  itMISS:          0  dtACCESS:          0  dtHIT:          0  dtMISS:          0
LLC WRITE        ACCESS:      93133  HIT:      91294  MISS:       1839  iACCESS:          0  iHIT:          0  iMISS:          0  dACCESS:      93133  dHIT:      91294  dMISS:       1839  itACCESS:          0  itHIT:          0  itMISS:          0  dtACCESS:          0  dtHIT:          0  dtMISS:          0
LLC TRANSLATION  ACCESS:      54153  HIT:      40918  MISS:      13235  iACCESS:          0  iHIT:          0  iMISS:          0  dACCESS:          0  dHIT:          0  dMISS:          0  itACCESS:       1858  itHIT:        239  itMISS:       1619  dtACCESS:      52295  dtHIT:      40679  dtMISS:      11616
LLC PREFETCH  REQUESTED:          0  ISSUED:          0  CROSSED:          0  USEFUL:          0  USELESS:          0
LLC AVERAGE iMISS LATENCY: 2.77782 cycles
LLC AVERAGE dMISS LATENCY: 962.694 cycles
LLC AVERAGE itMISS LATENCY: 0.159057 cycles
LLC AVERAGE dtMISS LATENCY: 1.81193 cycles
LLC PAGE CROSSINGS (TLB HIT):         0 
LLC PAGE CROSSINGS (TLB MISS):         0 
LLC AVERAGE MISS LATENCY: 967.443 cycles

PageTableWalker TOTAL       ACCESS:      29339  
PageTableWalker AVERAGE LATENCY: 3.1966 cycles
PageTableWalker TOTAL LATENCY: 93785 cycles

DRAM Statistics
Channel 0
 RQ ROW_BUFFER_HIT:     392536
  ROW_BUFFER_MISS:    1799430
 AVG DBUS CONGESTED CYCLE:    3.87946
 WQ ROW_BUFFER_HIT:      12344
  ROW_BUFFER_MISS:      69316  FULL:          0

