last_page:0x200000000000000
VMEM_RES_CAP:0x100000
PAGE_SIZE:4096
LOG2_PAGE_SIZE:12
LOG2_PAGE_TABLE_SIZE:9
page_table_levels:5
WARNING: physical memory size is smaller than virtual memory size
FDiP enabled with aggresivity 16

*** ChampSim Multicore Out-of-Order Simulator ***

Warmup Instructions: 50000000
Simulation Instructions: 100000000
Number of CPUs: 1
Small page size: 4096
Large page size: 2097152

CPU 0 Bimodal branch predictor
Basic BTB sets: 1024 ways: 8 indirect buffer size: 4096 RAS size: 64
Instruction page size distrubution: 0
Loading instruction page size distribution from /home/bsc/bsc018186/scratch/itp_asplos25_AE/dump/srv617_ap.pdst
Data page size distrubution: 0
Loading data page size distribution from /home/bsc/bsc018186/scratch/itp_asplos25_AE/dump/srv617_ap.pdst
cpu0_L2C IP-based stride prefetcher
cpu0_L1D next line prefetcher
CHiRPing...
cpu0_L1I next line prefetcher
Off-chip DRAM Size: 4 GiB Channels: 1 Width: 64-bit Data Rate: 3200 MT/s
Heartbeat CPU 0 instructions: 10000000 cycles: 2500135 heartbeat IPC: 3.99979 cumulative IPC: 3.99979 (Simulation time: 0 hr 0 min 40 sec) 
Heartbeat CPU 0 instructions: 20000000 cycles: 5000191 heartbeat IPC: 3.99992 cumulative IPC: 3.99985 (Simulation time: 0 hr 1 min 21 sec) 
Heartbeat CPU 0 instructions: 30000000 cycles: 7501492 heartbeat IPC: 3.99792 cumulative IPC: 3.99921 (Simulation time: 0 hr 2 min 2 sec) 
Heartbeat CPU 0 instructions: 40000000 cycles: 10001604 heartbeat IPC: 3.99983 cumulative IPC: 3.99936 (Simulation time: 0 hr 2 min 44 sec) 
Heartbeat CPU 0 instructions: 50000002 cycles: 12501661 heartbeat IPC: 3.99991 cumulative IPC: 3.99947 (Simulation time: 0 hr 3 min 26 sec) 
Warmup finished CPU 0 instructions: 50000002 cycles: 12501662 cumulative IPC: 3.99947 (Simulation time: 0 hr 3 min 26 sec) 

Warmup complete CPU 0 instructions: 50000002 cycles: 12501662 (Simulation time: 0 hr 3 min 26 sec) 

Heartbeat CPU 0 instructions: 60000001 cycles: 33895072 heartbeat IPC: 0.467434 cumulative IPC: 0.467434 (Simulation time: 0 hr 4 min 43 sec) 
Heartbeat CPU 0 instructions: 70000000 cycles: 54592723 heartbeat IPC: 0.483147 cumulative IPC: 0.475161 (Simulation time: 0 hr 6 min 0 sec) 
Heartbeat CPU 0 instructions: 80000001 cycles: 65998991 heartbeat IPC: 0.876712 cumulative IPC: 0.560776 (Simulation time: 0 hr 6 min 57 sec) 
Heartbeat CPU 0 instructions: 90000002 cycles: 87574183 heartbeat IPC: 0.463496 cumulative IPC: 0.532819 (Simulation time: 0 hr 8 min 15 sec) 
Heartbeat CPU 0 instructions: 100000001 cycles: 106983703 heartbeat IPC: 0.515212 cumulative IPC: 0.529202 (Simulation time: 0 hr 9 min 28 sec) 
*** Reached end of trace: /gpfs/projects/bsc18/MN4/bsc18/romol/ChampSim/traces/qualcomm_srv/srv617_ap.champsimtrace.xz
Heartbeat CPU 0 instructions: 110000003 cycles: 127669679 heartbeat IPC: 0.48342 cumulative IPC: 0.520978 (Simulation time: 0 hr 10 min 43 sec) 
Heartbeat CPU 0 instructions: 120000003 cycles: 148691503 heartbeat IPC: 0.475697 cumulative IPC: 0.513989 (Simulation time: 0 hr 11 min 58 sec) 
Heartbeat CPU 0 instructions: 130000000 cycles: 169923793 heartbeat IPC: 0.470981 cumulative IPC: 0.508188 (Simulation time: 0 hr 13 min 13 sec) 
Heartbeat CPU 0 instructions: 140000004 cycles: 191426866 heartbeat IPC: 0.46505 cumulative IPC: 0.503004 (Simulation time: 0 hr 14 min 27 sec) 
Heartbeat CPU 0 instructions: 150000000 cycles: 213367956 heartbeat IPC: 0.455766 cumulative IPC: 0.497844 (Simulation time: 0 hr 15 min 42 sec) 
Simulation finished CPU 0 instructions: 100000003 cycles: 200866296 cumulative IPC: 0.497844 (Simulation time: 0 hr 15 min 42 sec) 

Simulation complete CPU 0 instructions: 100000003 cycles: 200866296 (Simulation time: 0 hr 15 min 42 sec) 


ChampSim completed all CPUs

Saving instructions large page distribution to /home/bsc/bsc018186/scratch/itp_asplos25_AE/dump/srv617_ap.pdst...
Saving data large page distribution to /home/bsc/bsc018186/scratch/itp_asplos25_AE/dump/srv617_ap.pdst...
=== Simulation ===
CPU 0 runs /gpfs/projects/bsc18/MN4/bsc18/romol/ChampSim/traces/qualcomm_srv/srv617_ap.champsimtrace.xz

Region of Interest Statistics

CPU 0 cumulative IPC: 0.497844 instructions: 100000003 cycles: 200866296
CPU 0 Branch Prediction Accuracy: 79.8046% MPKI: 36.7393 Average ROB Occupancy at Mispredict: 10.853
Branch type MPKI
BRANCH_DIRECT_JUMP: 1.2705
BRANCH_INDIRECT: 18.5871
BRANCH_CONDITIONAL: 11.9361
BRANCH_DIRECT_CALL: 2.33997
BRANCH_INDIRECT_CALL: 0.99686
BRANCH_RETURN: 1.60878

Instructions large pages: 0
Instructions small pages: 6971
Large page distribution for instructions: 0%

Data large pages: 0
Data small pages: 5426
Large page distribution for data: 0%

cpu0_L1I TOTAL       ACCESS:   35041104  HIT:   27545105  MISS:    7495999  iACCESS:   35041104  iHIT:   27545105  iMISS:    7495999  dACCESS:          0  dHIT:          0  dMISS:          0  itACCESS:          0  itHIT:          0  itMISS:          0  dtACCESS:          0  dtHIT:          0  dtMISS:          0
cpu0_L1I LOAD         ACCESS:    9979231  HIT:    7915831  MISS:    2063400  iACCESS:    9979231  iHIT:    7915831  iMISS:    2063400  dACCESS:          0  dHIT:          0  dMISS:          0  itACCESS:          0  itHIT:          0  itMISS:          0  dtACCESS:          0  dtHIT:          0  dtMISS:          0
cpu0_L1I RFO          ACCESS:          0  HIT:          0  MISS:          0  iACCESS:          0  iHIT:          0  iMISS:          0  dACCESS:          0  dHIT:          0  dMISS:          0  itACCESS:          0  itHIT:          0  itMISS:          0  dtACCESS:          0  dtHIT:          0  dtMISS:          0
cpu0_L1I PREFETCH     ACCESS:   25061873  HIT:   19629274  MISS:    5432599  iACCESS:   25061873  iHIT:   19629274  iMISS:    5432599  dACCESS:          0  dHIT:          0  dMISS:          0  itACCESS:          0  itHIT:          0  itMISS:          0  dtACCESS:          0  dtHIT:          0  dtMISS:          0
cpu0_L1I WRITE        ACCESS:          0  HIT:          0  MISS:          0  iACCESS:          0  iHIT:          0  iMISS:          0  dACCESS:          0  dHIT:          0  dMISS:          0  itACCESS:          0  itHIT:          0  itMISS:          0  dtACCESS:          0  dtHIT:          0  dtMISS:          0
cpu0_L1I TRANSLATION  ACCESS:          0  HIT:          0  MISS:          0  iACCESS:          0  iHIT:          0  iMISS:          0  dACCESS:          0  dHIT:          0  dMISS:          0  itACCESS:          0  itHIT:          0  itMISS:          0  dtACCESS:          0  dtHIT:          0  dtMISS:          0
cpu0_L1I PREFETCH  REQUESTED:   27471855  ISSUED:   27471855  CROSSED:          0  USEFUL:    1896861  USELESS:     626437
cpu0_L1I AVERAGE iMISS LATENCY: 19.3672 cycles
cpu0_L1I AVERAGE dMISS LATENCY: 0 cycles
cpu0_L1I AVERAGE itMISS LATENCY: 0 cycles
cpu0_L1I AVERAGE dtMISS LATENCY: 0 cycles
cpu0_L1I PAGE CROSSINGS (TLB HIT):         0 
cpu0_L1I PAGE CROSSINGS (TLB MISS):         0 
cpu0_L1I AVERAGE MISS LATENCY: 19.3672 cycles
cpu0_ITLB TOTAL       ACCESS:   29559402  HIT:   27734742  MISS:    1824660  iACCESS:   29559402  iHIT:   27734742  iMISS:    1824660  dACCESS:          0  dHIT:          0  dMISS:          0  itACCESS:          0  itHIT:          0  itMISS:          0  dtACCESS:          0  dtHIT:          0  dtMISS:          0
cpu0_ITLB LOAD         ACCESS:   29559402  HIT:   27734742  MISS:    1824660  iACCESS:   29559402  iHIT:   27734742  iMISS:    1824660  dACCESS:          0  dHIT:          0  dMISS:          0  itACCESS:          0  itHIT:          0  itMISS:          0  dtACCESS:          0  dtHIT:          0  dtMISS:          0
cpu0_ITLB RFO          ACCESS:          0  HIT:          0  MISS:          0  iACCESS:          0  iHIT:          0  iMISS:          0  dACCESS:          0  dHIT:          0  dMISS:          0  itACCESS:          0  itHIT:          0  itMISS:          0  dtACCESS:          0  dtHIT:          0  dtMISS:          0
cpu0_ITLB PREFETCH     ACCESS:          0  HIT:          0  MISS:          0  iACCESS:          0  iHIT:          0  iMISS:          0  dACCESS:          0  dHIT:          0  dMISS:          0  itACCESS:          0  itHIT:          0  itMISS:          0  dtACCESS:          0  dtHIT:          0  dtMISS:          0
cpu0_ITLB WRITE        ACCESS:          0  HIT:          0  MISS:          0  iACCESS:          0  iHIT:          0  iMISS:          0  dACCESS:          0  dHIT:          0  dMISS:          0  itACCESS:          0  itHIT:          0  itMISS:          0  dtACCESS:          0  dtHIT:          0  dtMISS:          0
cpu0_ITLB TRANSLATION  ACCESS:          0  HIT:          0  MISS:          0  iACCESS:          0  iHIT:          0  iMISS:          0  dACCESS:          0  dHIT:          0  dMISS:          0  itACCESS:          0  itHIT:          0  itMISS:          0  dtACCESS:          0  dtHIT:          0  dtMISS:          0
cpu0_ITLB PREFETCH  REQUESTED:          0  ISSUED:          0  CROSSED:          0  USEFUL:     309275  USELESS:      61552
cpu0_ITLB AVERAGE iMISS LATENCY: 7.72637 cycles
cpu0_ITLB AVERAGE dMISS LATENCY: 0 cycles
cpu0_ITLB AVERAGE itMISS LATENCY: 0 cycles
cpu0_ITLB AVERAGE dtMISS LATENCY: 0 cycles
cpu0_ITLB PAGE CROSSINGS (TLB HIT):         0 
cpu0_ITLB PAGE CROSSINGS (TLB MISS):         0 
cpu0_ITLB AVERAGE MISS LATENCY: 7.72637 cycles
cpu0_DTLB TOTAL       ACCESS:   28718956  HIT:   26870139  MISS:    1848817  iACCESS:          0  iHIT:          0  iMISS:          0  dACCESS:   28718956  dHIT:   26870139  dMISS:    1848817  itACCESS:          0  itHIT:          0  itMISS:          0  dtACCESS:          0  dtHIT:          0  dtMISS:          0
cpu0_DTLB LOAD         ACCESS:   28718956  HIT:   26870139  MISS:    1848817  iACCESS:          0  iHIT:          0  iMISS:          0  dACCESS:   28718956  dHIT:   26870139  dMISS:    1848817  itACCESS:          0  itHIT:          0  itMISS:          0  dtACCESS:          0  dtHIT:          0  dtMISS:          0
cpu0_DTLB RFO          ACCESS:          0  HIT:          0  MISS:          0  iACCESS:          0  iHIT:          0  iMISS:          0  dACCESS:          0  dHIT:          0  dMISS:          0  itACCESS:          0  itHIT:          0  itMISS:          0  dtACCESS:          0  dtHIT:          0  dtMISS:          0
cpu0_DTLB PREFETCH     ACCESS:          0  HIT:          0  MISS:          0  iACCESS:          0  iHIT:          0  iMISS:          0  dACCESS:          0  dHIT:          0  dMISS:          0  itACCESS:          0  itHIT:          0  itMISS:          0  dtACCESS:          0  dtHIT:          0  dtMISS:          0
cpu0_DTLB WRITE        ACCESS:          0  HIT:          0  MISS:          0  iACCESS:          0  iHIT:          0  iMISS:          0  dACCESS:          0  dHIT:          0  dMISS:          0  itACCESS:          0  itHIT:          0  itMISS:          0  dtACCESS:          0  dtHIT:          0  dtMISS:          0
cpu0_DTLB TRANSLATION  ACCESS:          0  HIT:          0  MISS:          0  iACCESS:          0  iHIT:          0  iMISS:          0  dACCESS:          0  dHIT:          0  dMISS:          0  itACCESS:          0  itHIT:          0  itMISS:          0  dtACCESS:          0  dtHIT:          0  dtMISS:          0
cpu0_DTLB PREFETCH  REQUESTED:          0  ISSUED:          0  CROSSED:          0  USEFUL:          0  USELESS:          0
cpu0_DTLB AVERAGE iMISS LATENCY: 0 cycles
cpu0_DTLB AVERAGE dMISS LATENCY: 20.2737 cycles
cpu0_DTLB AVERAGE itMISS LATENCY: 0 cycles
cpu0_DTLB AVERAGE dtMISS LATENCY: 0 cycles
cpu0_DTLB PAGE CROSSINGS (TLB HIT):         0 
cpu0_DTLB PAGE CROSSINGS (TLB MISS):         0 
cpu0_DTLB AVERAGE MISS LATENCY: 20.2737 cycles
cpu0_STLB TOTAL       ACCESS:    1515915  HIT:    1301543  MISS:     214372  iACCESS:     370831  iHIT:     290046  iMISS:      80785  dACCESS:    1145084  dHIT:    1011497  dMISS:     133587  itACCESS:          0  itHIT:          0  itMISS:          0  dtACCESS:          0  dtHIT:          0  dtMISS:          0
cpu0_STLB LOAD         ACCESS:    1515915  HIT:    1301543  MISS:     214372  iACCESS:     370831  iHIT:     290046  iMISS:      80785  dACCESS:    1145084  dHIT:    1011497  dMISS:     133587  itACCESS:          0  itHIT:          0  itMISS:          0  dtACCESS:          0  dtHIT:          0  dtMISS:          0
cpu0_STLB RFO          ACCESS:          0  HIT:          0  MISS:          0  iACCESS:          0  iHIT:          0  iMISS:          0  dACCESS:          0  dHIT:          0  dMISS:          0  itACCESS:          0  itHIT:          0  itMISS:          0  dtACCESS:          0  dtHIT:          0  dtMISS:          0
cpu0_STLB PREFETCH     ACCESS:          0  HIT:          0  MISS:          0  iACCESS:          0  iHIT:          0  iMISS:          0  dACCESS:          0  dHIT:          0  dMISS:          0  itACCESS:          0  itHIT:          0  itMISS:          0  dtACCESS:          0  dtHIT:          0  dtMISS:          0
cpu0_STLB WRITE        ACCESS:          0  HIT:          0  MISS:          0  iACCESS:          0  iHIT:          0  iMISS:          0  dACCESS:          0  dHIT:          0  dMISS:          0  itACCESS:          0  itHIT:          0  itMISS:          0  dtACCESS:          0  dtHIT:          0  dtMISS:          0
cpu0_STLB TRANSLATION  ACCESS:          0  HIT:          0  MISS:          0  iACCESS:          0  iHIT:          0  iMISS:          0  dACCESS:          0  dHIT:          0  dMISS:          0  itACCESS:          0  itHIT:          0  itMISS:          0  dtACCESS:          0  dtHIT:          0  dtMISS:          0
cpu0_STLB PREFETCH  REQUESTED:          0  ISSUED:          0  CROSSED:          0  USEFUL:          0  USELESS:          0
cpu0_STLB AVERAGE iMISS LATENCY: 51.9681 cycles
cpu0_STLB AVERAGE dMISS LATENCY: 132.03 cycles
cpu0_STLB AVERAGE itMISS LATENCY: 0 cycles
cpu0_STLB AVERAGE dtMISS LATENCY: 0 cycles
cpu0_STLB PAGE CROSSINGS (TLB HIT):         0 
cpu0_STLB PAGE CROSSINGS (TLB MISS):         0 
cpu0_STLB AVERAGE MISS LATENCY: 183.998 cycles
cpu0_L1D TOTAL       ACCESS:   43780005  HIT:   39596498  MISS:    4183507  iACCESS:          0  iHIT:          0  iMISS:          0  dACCESS:   43500606  dHIT:   39574365  dMISS:    3926241  itACCESS:      88692  itHIT:      11744  itMISS:      76948  dtACCESS:     190707  dtHIT:      10389  dtMISS:     180318
cpu0_L1D LOAD         ACCESS:   20264746  HIT:   18490649  MISS:    1774097  iACCESS:          0  iHIT:          0  iMISS:          0  dACCESS:   20264746  dHIT:   18490649  dMISS:    1774097  itACCESS:          0  itHIT:          0  itMISS:          0  dtACCESS:          0  dtHIT:          0  dtMISS:          0
cpu0_L1D RFO          ACCESS:          0  HIT:          0  MISS:          0  iACCESS:          0  iHIT:          0  iMISS:          0  dACCESS:          0  dHIT:          0  dMISS:          0  itACCESS:          0  itHIT:          0  itMISS:          0  dtACCESS:          0  dtHIT:          0  dtMISS:          0
cpu0_L1D PREFETCH     ACCESS:   13187689  HIT:   11530302  MISS:    1657387  iACCESS:          0  iHIT:          0  iMISS:          0  dACCESS:   13187689  dHIT:   11530302  dMISS:    1657387  itACCESS:          0  itHIT:          0  itMISS:          0  dtACCESS:          0  dtHIT:          0  dtMISS:          0
cpu0_L1D WRITE        ACCESS:   10048171  HIT:    9553414  MISS:     494757  iACCESS:          0  iHIT:          0  iMISS:          0  dACCESS:   10048171  dHIT:    9553414  dMISS:     494757  itACCESS:          0  itHIT:          0  itMISS:          0  dtACCESS:          0  dtHIT:          0  dtMISS:          0
cpu0_L1D TRANSLATION  ACCESS:     279399  HIT:      22133  MISS:     257266  iACCESS:          0  iHIT:          0  iMISS:          0  dACCESS:          0  dHIT:          0  dMISS:          0  itACCESS:      88692  itHIT:      11744  itMISS:      76948  dtACCESS:     190707  dtHIT:      10389  dtMISS:     180318
cpu0_L1D PREFETCH  REQUESTED:   20264746  ISSUED:   17893379  CROSSED:          0  USEFUL:     316391  USELESS:     692641
cpu0_L1D AVERAGE iMISS LATENCY: 0 cycles
cpu0_L1D AVERAGE dMISS LATENCY: 38.6398 cycles
cpu0_L1D AVERAGE itMISS LATENCY: 2.49378 cycles
cpu0_L1D AVERAGE dtMISS LATENCY: 6.31803 cycles
cpu0_L1D PAGE CROSSINGS (TLB HIT):         0 
cpu0_L1D PAGE CROSSINGS (TLB MISS):         0 
cpu0_L1D AVERAGE MISS LATENCY: 47.4516 cycles
cpu0_L2C TOTAL       ACCESS:    7043910  HIT:    3672237  MISS:    3371673  iACCESS:    3217384  iHIT:    1960699  iMISS:    1256685  dACCESS:    3584390  dHIT:    1675597  dMISS:    1908793  itACCESS:      74562  itHIT:      14554  itMISS:      60008  dtACCESS:     167574  dtHIT:      21387  dtMISS:     146187
cpu0_L2C LOAD         ACCESS:    1677539  HIT:     918925  MISS:     758614  iACCESS:     730017  iHIT:     472425  iMISS:     257592  dACCESS:     947522  dHIT:     446500  dMISS:     501022  itACCESS:          0  itHIT:          0  itMISS:          0  dtACCESS:          0  dtHIT:          0  dtMISS:          0
cpu0_L2C RFO          ACCESS:     163048  HIT:      65680  MISS:      97368  iACCESS:          0  iHIT:          0  iMISS:          0  dACCESS:     163048  dHIT:      65680  dMISS:      97368  itACCESS:          0  itHIT:          0  itMISS:          0  dtACCESS:          0  dtHIT:          0  dtMISS:          0
cpu0_L2C PREFETCH     ACCESS:    4684975  HIT:    2377155  MISS:    2307820  iACCESS:    2487367  iHIT:    1488274  iMISS:     999093  dACCESS:    2197608  dHIT:     888881  dMISS:    1308727  itACCESS:          0  itHIT:          0  itMISS:          0  dtACCESS:          0  dtHIT:          0  dtMISS:          0
cpu0_L2C WRITE        ACCESS:     276212  HIT:     274536  MISS:       1676  iACCESS:          0  iHIT:          0  iMISS:          0  dACCESS:     276212  dHIT:     274536  dMISS:       1676  itACCESS:          0  itHIT:          0  itMISS:          0  dtACCESS:          0  dtHIT:          0  dtMISS:          0
cpu0_L2C TRANSLATION  ACCESS:     242136  HIT:      35941  MISS:     206195  iACCESS:          0  iHIT:          0  iMISS:          0  dACCESS:          0  dHIT:          0  dMISS:          0  itACCESS:      74562  itHIT:      14554  itMISS:      60008  dtACCESS:     167574  dtHIT:      21387  dtMISS:     146187
cpu0_L2C PREFETCH  REQUESTED:    1441624  ISSUED:    1441105  CROSSED:          0  USEFUL:     353194  USELESS:     280600
cpu0_L2C AVERAGE iMISS LATENCY: 34.7678 cycles
cpu0_L2C AVERAGE dMISS LATENCY: 61.2416 cycles
cpu0_L2C AVERAGE itMISS LATENCY: 2.87677 cycles
cpu0_L2C AVERAGE dtMISS LATENCY: 7.34596 cycles
cpu0_L2C PAGE CROSSINGS (TLB HIT):         0 
cpu0_L2C PAGE CROSSINGS (TLB MISS):         0 
cpu0_L2C AVERAGE MISS LATENCY: 106.232 cycles
LLC TOTAL       ACCESS:    3341001  HIT:    1506920  MISS:    1834081  iACCESS:    1182900  iHIT:     553956  iMISS:     628944  dACCESS:    1951906  dHIT:     910282  dMISS:    1041624  itACCESS:      60008  itHIT:      11781  itMISS:      48227  dtACCESS:     146187  dtHIT:      30901  dtMISS:     115286
LLC LOAD         ACCESS:     752858  HIT:     358184  MISS:     394674  iACCESS:     256603  iHIT:     126323  iMISS:     130280  dACCESS:     496255  dHIT:     231861  dMISS:     264394  itACCESS:          0  itHIT:          0  itMISS:          0  dtACCESS:          0  dtHIT:          0  dtMISS:          0
LLC RFO          ACCESS:      97359  HIT:      33648  MISS:      63711  iACCESS:          0  iHIT:          0  iMISS:          0  dACCESS:      97359  dHIT:      33648  dMISS:      63711  itACCESS:          0  itHIT:          0  itMISS:          0  dtACCESS:          0  dtHIT:          0  dtMISS:          0
LLC PREFETCH     ACCESS:    2140927  HIT:     936535  MISS:    1204392  iACCESS:     926297  iHIT:     427633  iMISS:     498664  dACCESS:    1214630  dHIT:     508902  dMISS:     705728  itACCESS:          0  itHIT:          0  itMISS:          0  dtACCESS:          0  dtHIT:          0  dtMISS:          0
LLC WRITE        ACCESS:     143662  HIT:     135871  MISS:       7791  iACCESS:          0  iHIT:          0  iMISS:          0  dACCESS:     143662  dHIT:     135871  dMISS:       7791  itACCESS:          0  itHIT:          0  itMISS:          0  dtACCESS:          0  dtHIT:          0  dtMISS:          0
LLC TRANSLATION  ACCESS:     206195  HIT:      42682  MISS:     163513  iACCESS:          0  iHIT:          0  iMISS:          0  dACCESS:          0  dHIT:          0  dMISS:          0  itACCESS:      60008  itHIT:      11781  itMISS:      48227  dtACCESS:     146187  dtHIT:      30901  dtMISS:     115286
LLC PREFETCH  REQUESTED:          0  ISSUED:          0  CROSSED:          0  USEFUL:          0  USELESS:          0
LLC AVERAGE iMISS LATENCY: 51.3091 cycles
LLC AVERAGE dMISS LATENCY: 94.1388 cycles
LLC AVERAGE itMISS LATENCY: 4.64302 cycles
LLC AVERAGE dtMISS LATENCY: 11.9354 cycles
LLC PAGE CROSSINGS (TLB HIT):         0 
LLC PAGE CROSSINGS (TLB MISS):         0 
LLC AVERAGE MISS LATENCY: 162.027 cycles

PageTableWalker TOTAL       ACCESS:     119524  
PageTableWalker AVERAGE LATENCY: 5.09801 cycles
PageTableWalker TOTAL LATENCY: 609334 cycles

DRAM Statistics
Channel 0
 RQ ROW_BUFFER_HIT:     481312
  ROW_BUFFER_MISS:    1330427
 AVG DBUS CONGESTED CYCLE:    3.64058
 WQ ROW_BUFFER_HIT:      36835
  ROW_BUFFER_MISS:      28144  FULL:          0

