last_page:0x200000000000000
VMEM_RES_CAP:0x100000
PAGE_SIZE:4096
LOG2_PAGE_SIZE:12
LOG2_PAGE_TABLE_SIZE:9
page_table_levels:5
WARNING: physical memory size is smaller than virtual memory size
FDiP enabled with aggresivity 16

*** ChampSim Multicore Out-of-Order Simulator ***

Warmup Instructions: 50000000
Simulation Instructions: 100000000
Number of CPUs: 1
Small page size: 4096
Large page size: 2097152

CPU 0 Bimodal branch predictor
Basic BTB sets: 1024 ways: 8 indirect buffer size: 4096 RAS size: 64
Instruction page size distrubution: 0
Loading instruction page size distribution from /home/bsc/bsc018186/scratch/itp_asplos25_AE/dump/srv641_ap.pdst
Data page size distrubution: 0
Loading data page size distribution from /home/bsc/bsc018186/scratch/itp_asplos25_AE/dump/srv641_ap.pdst
cpu0_L2C IP-based stride prefetcher
cpu0_L2C is using PTP replacement policy:
	TLB_STRESS_THRESHOLD:0
	PTE_EVICTION_RATIO:0
cpu0_L1D next line prefetcher
CHiRPing...
cpu0_L1I next line prefetcher
Off-chip DRAM Size: 4 GiB Channels: 1 Width: 64-bit Data Rate: 3200 MT/s
Heartbeat CPU 0 instructions: 10000001 cycles: 2500201 heartbeat IPC: 3.99968 cumulative IPC: 3.99968 (Simulation time: 0 hr 0 min 38 sec) 
Heartbeat CPU 0 instructions: 20000000 cycles: 5000273 heartbeat IPC: 3.99989 cumulative IPC: 3.99979 (Simulation time: 0 hr 1 min 17 sec) 
Heartbeat CPU 0 instructions: 30000003 cycles: 7500297 heartbeat IPC: 3.99997 cumulative IPC: 3.99985 (Simulation time: 0 hr 1 min 58 sec) 
Heartbeat CPU 0 instructions: 40000002 cycles: 10000327 heartbeat IPC: 3.99996 cumulative IPC: 3.99987 (Simulation time: 0 hr 2 min 38 sec) 
Heartbeat CPU 0 instructions: 50000000 cycles: 12500402 heartbeat IPC: 3.99988 cumulative IPC: 3.99988 (Simulation time: 0 hr 3 min 19 sec) 
Warmup finished CPU 0 instructions: 50000000 cycles: 12500403 cumulative IPC: 3.99988 (Simulation time: 0 hr 3 min 19 sec) 

Warmup complete CPU 0 instructions: 50000000 cycles: 12500403 (Simulation time: 0 hr 3 min 19 sec) 

Heartbeat CPU 0 instructions: 60000003 cycles: 32004780 heartbeat IPC: 0.512706 cumulative IPC: 0.512706 (Simulation time: 0 hr 4 min 30 sec) 
Heartbeat CPU 0 instructions: 70000002 cycles: 51241061 heartbeat IPC: 0.519851 cumulative IPC: 0.516254 (Simulation time: 0 hr 5 min 40 sec) 
Heartbeat CPU 0 instructions: 80000002 cycles: 70885119 heartbeat IPC: 0.50906 cumulative IPC: 0.513834 (Simulation time: 0 hr 6 min 52 sec) 
Heartbeat CPU 0 instructions: 90000002 cycles: 90192930 heartbeat IPC: 0.517926 cumulative IPC: 0.514851 (Simulation time: 0 hr 8 min 4 sec) 
Heartbeat CPU 0 instructions: 100000001 cycles: 109424555 heartbeat IPC: 0.519977 cumulative IPC: 0.515868 (Simulation time: 0 hr 9 min 16 sec) 
*** Reached end of trace: /gpfs/projects/bsc18/MN4/bsc18/romol/ChampSim/traces/qualcomm_srv/srv641_ap.champsimtrace.xz
Heartbeat CPU 0 instructions: 110000000 cycles: 129473583 heartbeat IPC: 0.498778 cumulative IPC: 0.512939 (Simulation time: 0 hr 10 min 30 sec) 
Heartbeat CPU 0 instructions: 120000002 cycles: 149196768 heartbeat IPC: 0.507018 cumulative IPC: 0.512084 (Simulation time: 0 hr 11 min 43 sec) 
Heartbeat CPU 0 instructions: 130000002 cycles: 168948032 heartbeat IPC: 0.506297 cumulative IPC: 0.511354 (Simulation time: 0 hr 12 min 57 sec) 
Heartbeat CPU 0 instructions: 140000000 cycles: 190107076 heartbeat IPC: 0.472612 cumulative IPC: 0.506738 (Simulation time: 0 hr 14 min 12 sec) 
Heartbeat CPU 0 instructions: 150000003 cycles: 209972905 heartbeat IPC: 0.503378 cumulative IPC: 0.5064 (Simulation time: 0 hr 15 min 25 sec) 
Simulation finished CPU 0 instructions: 100000003 cycles: 197472503 cumulative IPC: 0.5064 (Simulation time: 0 hr 15 min 25 sec) 

Simulation complete CPU 0 instructions: 100000003 cycles: 197472503 (Simulation time: 0 hr 15 min 25 sec) 


ChampSim completed all CPUs

Saving instructions large page distribution to /home/bsc/bsc018186/scratch/itp_asplos25_AE/dump/srv641_ap.pdst...
Saving data large page distribution to /home/bsc/bsc018186/scratch/itp_asplos25_AE/dump/srv641_ap.pdst...
=== Simulation ===
CPU 0 runs /gpfs/projects/bsc18/MN4/bsc18/romol/ChampSim/traces/qualcomm_srv/srv641_ap.champsimtrace.xz

Region of Interest Statistics

CPU 0 cumulative IPC: 0.5064 instructions: 100000003 cycles: 197472503
CPU 0 Branch Prediction Accuracy: 80.3626% MPKI: 35.4016 Average ROB Occupancy at Mispredict: 10.5699
Branch type MPKI
BRANCH_DIRECT_JUMP: 1.28661
BRANCH_INDIRECT: 17.856
BRANCH_CONDITIONAL: 11.4268
BRANCH_DIRECT_CALL: 2.414
BRANCH_INDIRECT_CALL: 0.69097
BRANCH_RETURN: 1.72728

Instructions large pages: 0
Instructions small pages: 1188
Large page distribution for instructions: 0%

Data large pages: 0
Data small pages: 5766
Large page distribution for data: 0%

cpu0_L1I TOTAL       ACCESS:   35412478  HIT:   27318609  MISS:    8093869  iACCESS:   35412478  iHIT:   27318609  iMISS:    8093869  dACCESS:          0  dHIT:          0  dMISS:          0  itACCESS:          0  itHIT:          0  itMISS:          0  dtACCESS:          0  dtHIT:          0  dtMISS:          0
cpu0_L1I LOAD         ACCESS:   10183638  HIT:    7952583  MISS:    2231055  iACCESS:   10183638  iHIT:    7952583  iMISS:    2231055  dACCESS:          0  dHIT:          0  dMISS:          0  itACCESS:          0  itHIT:          0  itMISS:          0  dtACCESS:          0  dtHIT:          0  dtMISS:          0
cpu0_L1I RFO          ACCESS:          0  HIT:          0  MISS:          0  iACCESS:          0  iHIT:          0  iMISS:          0  dACCESS:          0  dHIT:          0  dMISS:          0  itACCESS:          0  itHIT:          0  itMISS:          0  dtACCESS:          0  dtHIT:          0  dtMISS:          0
cpu0_L1I PREFETCH     ACCESS:   25228840  HIT:   19366026  MISS:    5862814  iACCESS:   25228840  iHIT:   19366026  iMISS:    5862814  dACCESS:          0  dHIT:          0  dMISS:          0  itACCESS:          0  itHIT:          0  itMISS:          0  dtACCESS:          0  dtHIT:          0  dtMISS:          0
cpu0_L1I WRITE        ACCESS:          0  HIT:          0  MISS:          0  iACCESS:          0  iHIT:          0  iMISS:          0  dACCESS:          0  dHIT:          0  dMISS:          0  itACCESS:          0  itHIT:          0  itMISS:          0  dtACCESS:          0  dtHIT:          0  dtMISS:          0
cpu0_L1I TRANSLATION  ACCESS:          0  HIT:          0  MISS:          0  iACCESS:          0  iHIT:          0  iMISS:          0  dACCESS:          0  dHIT:          0  dMISS:          0  itACCESS:          0  itHIT:          0  itMISS:          0  dtACCESS:          0  dtHIT:          0  dtMISS:          0
cpu0_L1I PREFETCH  REQUESTED:   27531026  ISSUED:   27530979  CROSSED:          0  USEFUL:    1970345  USELESS:     660603
cpu0_L1I AVERAGE iMISS LATENCY: 19.1569 cycles
cpu0_L1I AVERAGE dMISS LATENCY: 0 cycles
cpu0_L1I AVERAGE itMISS LATENCY: 0 cycles
cpu0_L1I AVERAGE dtMISS LATENCY: 0 cycles
cpu0_L1I PAGE CROSSINGS (TLB HIT):         0 
cpu0_L1I PAGE CROSSINGS (TLB MISS):         0 
cpu0_L1I AVERAGE MISS LATENCY: 19.1569 cycles
cpu0_ITLB TOTAL       ACCESS:   29807880  HIT:   27856935  MISS:    1950945  iACCESS:   29807880  iHIT:   27856935  iMISS:    1950945  dACCESS:          0  dHIT:          0  dMISS:          0  itACCESS:          0  itHIT:          0  itMISS:          0  dtACCESS:          0  dtHIT:          0  dtMISS:          0
cpu0_ITLB LOAD         ACCESS:   29807880  HIT:   27856935  MISS:    1950945  iACCESS:   29807880  iHIT:   27856935  iMISS:    1950945  dACCESS:          0  dHIT:          0  dMISS:          0  itACCESS:          0  itHIT:          0  itMISS:          0  dtACCESS:          0  dtHIT:          0  dtMISS:          0
cpu0_ITLB RFO          ACCESS:          0  HIT:          0  MISS:          0  iACCESS:          0  iHIT:          0  iMISS:          0  dACCESS:          0  dHIT:          0  dMISS:          0  itACCESS:          0  itHIT:          0  itMISS:          0  dtACCESS:          0  dtHIT:          0  dtMISS:          0
cpu0_ITLB PREFETCH     ACCESS:          0  HIT:          0  MISS:          0  iACCESS:          0  iHIT:          0  iMISS:          0  dACCESS:          0  dHIT:          0  dMISS:          0  itACCESS:          0  itHIT:          0  itMISS:          0  dtACCESS:          0  dtHIT:          0  dtMISS:          0
cpu0_ITLB WRITE        ACCESS:          0  HIT:          0  MISS:          0  iACCESS:          0  iHIT:          0  iMISS:          0  dACCESS:          0  dHIT:          0  dMISS:          0  itACCESS:          0  itHIT:          0  itMISS:          0  dtACCESS:          0  dtHIT:          0  dtMISS:          0
cpu0_ITLB TRANSLATION  ACCESS:          0  HIT:          0  MISS:          0  iACCESS:          0  iHIT:          0  iMISS:          0  dACCESS:          0  dHIT:          0  dMISS:          0  itACCESS:          0  itHIT:          0  itMISS:          0  dtACCESS:          0  dtHIT:          0  dtMISS:          0
cpu0_ITLB PREFETCH  REQUESTED:          0  ISSUED:          0  CROSSED:          0  USEFUL:     330525  USELESS:      62267
cpu0_ITLB AVERAGE iMISS LATENCY: 6.27761 cycles
cpu0_ITLB AVERAGE dMISS LATENCY: 0 cycles
cpu0_ITLB AVERAGE itMISS LATENCY: 0 cycles
cpu0_ITLB AVERAGE dtMISS LATENCY: 0 cycles
cpu0_ITLB PAGE CROSSINGS (TLB HIT):         0 
cpu0_ITLB PAGE CROSSINGS (TLB MISS):         0 
cpu0_ITLB AVERAGE MISS LATENCY: 6.27761 cycles
cpu0_DTLB TOTAL       ACCESS:   28114633  HIT:   26147170  MISS:    1967463  iACCESS:          0  iHIT:          0  iMISS:          0  dACCESS:   28114633  dHIT:   26147170  dMISS:    1967463  itACCESS:          0  itHIT:          0  itMISS:          0  dtACCESS:          0  dtHIT:          0  dtMISS:          0
cpu0_DTLB LOAD         ACCESS:   28114633  HIT:   26147170  MISS:    1967463  iACCESS:          0  iHIT:          0  iMISS:          0  dACCESS:   28114633  dHIT:   26147170  dMISS:    1967463  itACCESS:          0  itHIT:          0  itMISS:          0  dtACCESS:          0  dtHIT:          0  dtMISS:          0
cpu0_DTLB RFO          ACCESS:          0  HIT:          0  MISS:          0  iACCESS:          0  iHIT:          0  iMISS:          0  dACCESS:          0  dHIT:          0  dMISS:          0  itACCESS:          0  itHIT:          0  itMISS:          0  dtACCESS:          0  dtHIT:          0  dtMISS:          0
cpu0_DTLB PREFETCH     ACCESS:          0  HIT:          0  MISS:          0  iACCESS:          0  iHIT:          0  iMISS:          0  dACCESS:          0  dHIT:          0  dMISS:          0  itACCESS:          0  itHIT:          0  itMISS:          0  dtACCESS:          0  dtHIT:          0  dtMISS:          0
cpu0_DTLB WRITE        ACCESS:          0  HIT:          0  MISS:          0  iACCESS:          0  iHIT:          0  iMISS:          0  dACCESS:          0  dHIT:          0  dMISS:          0  itACCESS:          0  itHIT:          0  itMISS:          0  dtACCESS:          0  dtHIT:          0  dtMISS:          0
cpu0_DTLB TRANSLATION  ACCESS:          0  HIT:          0  MISS:          0  iACCESS:          0  iHIT:          0  iMISS:          0  dACCESS:          0  dHIT:          0  dMISS:          0  itACCESS:          0  itHIT:          0  itMISS:          0  dtACCESS:          0  dtHIT:          0  dtMISS:          0
cpu0_DTLB PREFETCH  REQUESTED:          0  ISSUED:          0  CROSSED:          0  USEFUL:          0  USELESS:          0
cpu0_DTLB AVERAGE iMISS LATENCY: 0 cycles
cpu0_DTLB AVERAGE dMISS LATENCY: 16.4581 cycles
cpu0_DTLB AVERAGE itMISS LATENCY: 0 cycles
cpu0_DTLB AVERAGE dtMISS LATENCY: 0 cycles
cpu0_DTLB PAGE CROSSINGS (TLB HIT):         0 
cpu0_DTLB PAGE CROSSINGS (TLB MISS):         0 
cpu0_DTLB AVERAGE MISS LATENCY: 16.4581 cycles
cpu0_STLB TOTAL       ACCESS:    1589342  HIT:    1357724  MISS:     231618  iACCESS:     392804  iHIT:     305671  iMISS:      87133  dACCESS:    1196538  dHIT:    1052053  dMISS:     144485  itACCESS:          0  itHIT:          0  itMISS:          0  dtACCESS:          0  dtHIT:          0  dtMISS:          0
cpu0_STLB LOAD         ACCESS:    1589342  HIT:    1357724  MISS:     231618  iACCESS:     392804  iHIT:     305671  iMISS:      87133  dACCESS:    1196538  dHIT:    1052053  dMISS:     144485  itACCESS:          0  itHIT:          0  itMISS:          0  dtACCESS:          0  dtHIT:          0  dtMISS:          0
cpu0_STLB RFO          ACCESS:          0  HIT:          0  MISS:          0  iACCESS:          0  iHIT:          0  iMISS:          0  dACCESS:          0  dHIT:          0  dMISS:          0  itACCESS:          0  itHIT:          0  itMISS:          0  dtACCESS:          0  dtHIT:          0  dtMISS:          0
cpu0_STLB PREFETCH     ACCESS:          0  HIT:          0  MISS:          0  iACCESS:          0  iHIT:          0  iMISS:          0  dACCESS:          0  dHIT:          0  dMISS:          0  itACCESS:          0  itHIT:          0  itMISS:          0  dtACCESS:          0  dtHIT:          0  dtMISS:          0
cpu0_STLB WRITE        ACCESS:          0  HIT:          0  MISS:          0  iACCESS:          0  iHIT:          0  iMISS:          0  dACCESS:          0  dHIT:          0  dMISS:          0  itACCESS:          0  itHIT:          0  itMISS:          0  dtACCESS:          0  dtHIT:          0  dtMISS:          0
cpu0_STLB TRANSLATION  ACCESS:          0  HIT:          0  MISS:          0  iACCESS:          0  iHIT:          0  iMISS:          0  dACCESS:          0  dHIT:          0  dMISS:          0  itACCESS:          0  itHIT:          0  itMISS:          0  dtACCESS:          0  dtHIT:          0  dtMISS:          0
cpu0_STLB PREFETCH  REQUESTED:          0  ISSUED:          0  CROSSED:          0  USEFUL:          0  USELESS:          0
cpu0_STLB AVERAGE iMISS LATENCY: 39.347 cycles
cpu0_STLB AVERAGE dMISS LATENCY: 98.4768 cycles
cpu0_STLB AVERAGE itMISS LATENCY: 0 cycles
cpu0_STLB AVERAGE dtMISS LATENCY: 0 cycles
cpu0_STLB PAGE CROSSINGS (TLB HIT):         0 
cpu0_STLB PAGE CROSSINGS (TLB MISS):         0 
cpu0_STLB AVERAGE MISS LATENCY: 137.824 cycles
cpu0_L1D TOTAL       ACCESS:   42859914  HIT:   38692880  MISS:    4167034  iACCESS:          0  iHIT:          0  iMISS:          0  dACCESS:   42570246  dHIT:   38665776  dMISS:    3904470  itACCESS:      93655  itHIT:      14996  itMISS:      78659  dtACCESS:     196013  dtHIT:      12108  dtMISS:     183905
cpu0_L1D LOAD         ACCESS:   19516115  HIT:   17736746  MISS:    1779369  iACCESS:          0  iHIT:          0  iMISS:          0  dACCESS:   19516115  dHIT:   17736746  dMISS:    1779369  itACCESS:          0  itHIT:          0  itMISS:          0  dtACCESS:          0  dtHIT:          0  dtMISS:          0
cpu0_L1D RFO          ACCESS:          0  HIT:          0  MISS:          0  iACCESS:          0  iHIT:          0  iMISS:          0  dACCESS:          0  dHIT:          0  dMISS:          0  itACCESS:          0  itHIT:          0  itMISS:          0  dtACCESS:          0  dtHIT:          0  dtMISS:          0
cpu0_L1D PREFETCH     ACCESS:   12894792  HIT:   11250690  MISS:    1644102  iACCESS:          0  iHIT:          0  iMISS:          0  dACCESS:   12894792  dHIT:   11250690  dMISS:    1644102  itACCESS:          0  itHIT:          0  itMISS:          0  dtACCESS:          0  dtHIT:          0  dtMISS:          0
cpu0_L1D WRITE        ACCESS:   10159339  HIT:    9678340  MISS:     480999  iACCESS:          0  iHIT:          0  iMISS:          0  dACCESS:   10159339  dHIT:    9678340  dMISS:     480999  itACCESS:          0  itHIT:          0  itMISS:          0  dtACCESS:          0  dtHIT:          0  dtMISS:          0
cpu0_L1D TRANSLATION  ACCESS:     289668  HIT:      27104  MISS:     262564  iACCESS:          0  iHIT:          0  iMISS:          0  dACCESS:          0  dHIT:          0  dMISS:          0  itACCESS:      93655  itHIT:      14996  itMISS:      78659  dtACCESS:     196013  dtHIT:      12108  dtMISS:     183905
cpu0_L1D PREFETCH  REQUESTED:   19516115  ISSUED:   17473324  CROSSED:          0  USEFUL:     309053  USELESS:     702210
cpu0_L1D AVERAGE iMISS LATENCY: 0 cycles
cpu0_L1D AVERAGE dMISS LATENCY: 40.5306 cycles
cpu0_L1D AVERAGE itMISS LATENCY: 2.00786 cycles
cpu0_L1D AVERAGE dtMISS LATENCY: 5.00416 cycles
cpu0_L1D PAGE CROSSINGS (TLB HIT):         0 
cpu0_L1D PAGE CROSSINGS (TLB MISS):         0 
cpu0_L1D AVERAGE MISS LATENCY: 47.5426 cycles
cpu0_L2C TOTAL       ACCESS:    7246466  HIT:    2624092  MISS:    4622374  iACCESS:    3366563  iHIT:    1452773  iMISS:    1913790  dACCESS:    3620671  dHIT:    1080716  dMISS:    2539955  itACCESS:      78659  itHIT:      28389  itMISS:      50270  dtACCESS:     180573  dtHIT:      62214  dtMISS:     118359
cpu0_L2C LOAD         ACCESS:    1718794  HIT:     579255  MISS:    1139539  iACCESS:     772434  iHIT:     329403  iMISS:     443031  dACCESS:     946360  dHIT:     249852  dMISS:     696508  itACCESS:          0  itHIT:          0  itMISS:          0  dtACCESS:          0  dtHIT:          0  dtMISS:          0
cpu0_L2C RFO          ACCESS:     163739  HIT:      38171  MISS:     125568  iACCESS:          0  iHIT:          0  iMISS:          0  dACCESS:     163739  dHIT:      38171  dMISS:     125568  itACCESS:          0  itHIT:          0  itMISS:          0  dtACCESS:          0  dtHIT:          0  dtMISS:          0
cpu0_L2C PREFETCH     ACCESS:    4831514  HIT:    1736105  MISS:    3095409  iACCESS:    2594129  iHIT:    1123370  iMISS:    1470759  dACCESS:    2237385  dHIT:     612735  dMISS:    1624650  itACCESS:          0  itHIT:          0  itMISS:          0  dtACCESS:          0  dtHIT:          0  dtMISS:          0
cpu0_L2C WRITE        ACCESS:     273187  HIT:     179958  MISS:      93229  iACCESS:          0  iHIT:          0  iMISS:          0  dACCESS:     273187  dHIT:     179958  dMISS:      93229  itACCESS:          0  itHIT:          0  itMISS:          0  dtACCESS:          0  dtHIT:          0  dtMISS:          0
cpu0_L2C TRANSLATION  ACCESS:     259232  HIT:      90603  MISS:     168629  iACCESS:          0  iHIT:          0  iMISS:          0  dACCESS:          0  dHIT:          0  dMISS:          0  itACCESS:      78659  itHIT:      28389  itMISS:      50270  dtACCESS:     180573  dtHIT:      62214  dtMISS:     118359
cpu0_L2C PREFETCH  REQUESTED:    1481127  ISSUED:    1480987  CROSSED:          0  USEFUL:     379422  USELESS:     364175
cpu0_L2C AVERAGE iMISS LATENCY: 27.0851 cycles
cpu0_L2C AVERAGE dMISS LATENCY: 46.7239 cycles
cpu0_L2C AVERAGE itMISS LATENCY: 1.64549 cycles
cpu0_L2C AVERAGE dtMISS LATENCY: 4.13213 cycles
cpu0_L2C PAGE CROSSINGS (TLB HIT):         0 
cpu0_L2C PAGE CROSSINGS (TLB MISS):         0 
cpu0_L2C AVERAGE MISS LATENCY: 79.5865 cycles
LLC TOTAL       ACCESS:    4531450  HIT:    2737978  MISS:    1793472  iACCESS:    1834843  iHIT:    1221321  iMISS:     613522  dACCESS:    2527978  dHIT:    1475670  dMISS:    1052308  itACCESS:      50270  itHIT:      12034  itMISS:      38236  dtACCESS:     118359  dtHIT:      28953  dtMISS:      89406
LLC LOAD         ACCESS:    1134173  HIT:     737107  MISS:     397066  iACCESS:     441657  iHIT:     312667  iMISS:     128990  dACCESS:     692516  dHIT:     424440  dMISS:     268076  itACCESS:          0  itHIT:          0  itMISS:          0  dtACCESS:          0  dtHIT:          0  dtMISS:          0
LLC RFO          ACCESS:     125566  HIT:      62554  MISS:      63012  iACCESS:          0  iHIT:          0  iMISS:          0  dACCESS:     125566  dHIT:      62554  dMISS:      63012  itACCESS:          0  itHIT:          0  itMISS:          0  dtACCESS:          0  dtHIT:          0  dtMISS:          0
LLC PREFETCH     ACCESS:    2915257  HIT:    1714282  MISS:    1200975  iACCESS:    1393186  iHIT:     908654  iMISS:     484532  dACCESS:    1522071  dHIT:     805628  dMISS:     716443  itACCESS:          0  itHIT:          0  itMISS:          0  dtACCESS:          0  dtHIT:          0  dtMISS:          0
LLC WRITE        ACCESS:     187825  HIT:     183048  MISS:       4777  iACCESS:          0  iHIT:          0  iMISS:          0  dACCESS:     187825  dHIT:     183048  dMISS:       4777  itACCESS:          0  itHIT:          0  itMISS:          0  dtACCESS:          0  dtHIT:          0  dtMISS:          0
LLC TRANSLATION  ACCESS:     168629  HIT:      40987  MISS:     127642  iACCESS:          0  iHIT:          0  iMISS:          0  dACCESS:          0  dHIT:          0  dMISS:          0  itACCESS:      50270  itHIT:      12034  itMISS:      38236  dtACCESS:     118359  dtHIT:      28953  dtMISS:      89406
LLC PREFETCH  REQUESTED:          0  ISSUED:          0  CROSSED:          0  USEFUL:          0  USELESS:          0
LLC AVERAGE iMISS LATENCY: 49.9271 cycles
LLC AVERAGE dMISS LATENCY: 95.9322 cycles
LLC AVERAGE itMISS LATENCY: 3.68896 cycles
LLC AVERAGE dtMISS LATENCY: 9.35187 cycles
LLC PAGE CROSSINGS (TLB HIT):         0 
LLC PAGE CROSSINGS (TLB MISS):         0 
LLC AVERAGE MISS LATENCY: 158.9 cycles

PageTableWalker TOTAL       ACCESS:     115990  
PageTableWalker AVERAGE LATENCY: 3.88837 cycles
PageTableWalker TOTAL LATENCY: 451011 cycles

DRAM Statistics
Channel 0
 RQ ROW_BUFFER_HIT:     512611
  ROW_BUFFER_MISS:    1259994
 AVG DBUS CONGESTED CYCLE:    3.63808
 WQ ROW_BUFFER_HIT:      39557
  ROW_BUFFER_MISS:      31034  FULL:          0

