last_page:0x200000000000000
VMEM_RES_CAP:0x100000
PAGE_SIZE:4096
LOG2_PAGE_SIZE:12
LOG2_PAGE_TABLE_SIZE:9
page_table_levels:5
WARNING: physical memory size is smaller than virtual memory size
FDiP enabled with aggresivity 16

*** ChampSim Multicore Out-of-Order Simulator ***

Warmup Instructions: 50000000
Simulation Instructions: 100000000
Number of CPUs: 1
Small page size: 4096
Large page size: 2097152

CPU 0 Bimodal branch predictor
Basic BTB sets: 1024 ways: 8 indirect buffer size: 4096 RAS size: 64
Instruction page size distrubution: 0
Loading instruction page size distribution from /home/bsc/bsc018186/scratch/itp_asplos25_AE/dump/srv638_ap.pdst
Data page size distrubution: 0
Loading data page size distribution from /home/bsc/bsc018186/scratch/itp_asplos25_AE/dump/srv638_ap.pdst
cpu0_L2C IP-based stride prefetcher
cpu0_L2C is using PTP replacement policy:
	TLB_STRESS_THRESHOLD:0
	PTE_EVICTION_RATIO:0
cpu0_L1D next line prefetcher
cpu0_L1I next line prefetcher
Off-chip DRAM Size: 4 GiB Channels: 1 Width: 64-bit Data Rate: 3200 MT/s
Heartbeat CPU 0 instructions: 10000002 cycles: 2500110 heartbeat IPC: 3.99983 cumulative IPC: 3.99983 (Simulation time: 0 hr 0 min 38 sec) 
Heartbeat CPU 0 instructions: 20000002 cycles: 5000129 heartbeat IPC: 3.99997 cumulative IPC: 3.9999 (Simulation time: 0 hr 1 min 18 sec) 
Heartbeat CPU 0 instructions: 30000002 cycles: 7500131 heartbeat IPC: 4 cumulative IPC: 3.99994 (Simulation time: 0 hr 1 min 59 sec) 
Heartbeat CPU 0 instructions: 40000001 cycles: 10000181 heartbeat IPC: 3.99992 cumulative IPC: 3.99993 (Simulation time: 0 hr 2 min 40 sec) 
Heartbeat CPU 0 instructions: 50000002 cycles: 12500206 heartbeat IPC: 3.99997 cumulative IPC: 3.99994 (Simulation time: 0 hr 3 min 20 sec) 
Warmup finished CPU 0 instructions: 50000002 cycles: 12500207 cumulative IPC: 3.99994 (Simulation time: 0 hr 3 min 20 sec) 

Warmup complete CPU 0 instructions: 50000002 cycles: 12500207 (Simulation time: 0 hr 3 min 20 sec) 

Heartbeat CPU 0 instructions: 60000001 cycles: 26947808 heartbeat IPC: 0.692157 cumulative IPC: 0.692157 (Simulation time: 0 hr 4 min 24 sec) 
Heartbeat CPU 0 instructions: 70000002 cycles: 41140318 heartbeat IPC: 0.704598 cumulative IPC: 0.698322 (Simulation time: 0 hr 5 min 28 sec) 
Heartbeat CPU 0 instructions: 80000003 cycles: 55446821 heartbeat IPC: 0.698983 cumulative IPC: 0.698542 (Simulation time: 0 hr 6 min 32 sec) 
Heartbeat CPU 0 instructions: 90000000 cycles: 69821162 heartbeat IPC: 0.695684 cumulative IPC: 0.697826 (Simulation time: 0 hr 7 min 36 sec) 
Heartbeat CPU 0 instructions: 100000001 cycles: 83976079 heartbeat IPC: 0.706469 cumulative IPC: 0.699537 (Simulation time: 0 hr 8 min 40 sec) 
*** Reached end of trace: /gpfs/projects/bsc18/MN4/bsc18/romol/ChampSim/traces/qualcomm_srv/srv638_ap.champsimtrace.xz
Heartbeat CPU 0 instructions: 110000001 cycles: 98112275 heartbeat IPC: 0.707404 cumulative IPC: 0.700836 (Simulation time: 0 hr 9 min 43 sec) 
Heartbeat CPU 0 instructions: 120000002 cycles: 112082967 heartbeat IPC: 0.715785 cumulative IPC: 0.702933 (Simulation time: 0 hr 10 min 46 sec) 
Heartbeat CPU 0 instructions: 130000003 cycles: 125919094 heartbeat IPC: 0.722746 cumulative IPC: 0.70535 (Simulation time: 0 hr 11 min 50 sec) 
Heartbeat CPU 0 instructions: 140000000 cycles: 139966300 heartbeat IPC: 0.711886 cumulative IPC: 0.706071 (Simulation time: 0 hr 12 min 53 sec) 
Heartbeat CPU 0 instructions: 150000003 cycles: 154151431 heartbeat IPC: 0.704964 cumulative IPC: 0.70596 (Simulation time: 0 hr 13 min 57 sec) 
Simulation finished CPU 0 instructions: 100000001 cycles: 141651225 cumulative IPC: 0.70596 (Simulation time: 0 hr 13 min 57 sec) 

Simulation complete CPU 0 instructions: 100000001 cycles: 141651225 (Simulation time: 0 hr 13 min 57 sec) 


ChampSim completed all CPUs

Saving instructions large page distribution to /home/bsc/bsc018186/scratch/itp_asplos25_AE/dump/srv638_ap.pdst...
Saving data large page distribution to /home/bsc/bsc018186/scratch/itp_asplos25_AE/dump/srv638_ap.pdst...
=== Simulation ===
CPU 0 runs /gpfs/projects/bsc18/MN4/bsc18/romol/ChampSim/traces/qualcomm_srv/srv638_ap.champsimtrace.xz

Region of Interest Statistics

CPU 0 cumulative IPC: 0.70596 instructions: 100000001 cycles: 141651225
CPU 0 Branch Prediction Accuracy: 83.3065% MPKI: 29.9322 Average ROB Occupancy at Mispredict: 12.3607
Branch type MPKI
BRANCH_DIRECT_JUMP: 0.96882
BRANCH_INDIRECT: 15.5202
BRANCH_CONDITIONAL: 9.76945
BRANCH_DIRECT_CALL: 1.84419
BRANCH_INDIRECT_CALL: 0.48996
BRANCH_RETURN: 1.33965

Instructions large pages: 0
Instructions small pages: 867
Large page distribution for instructions: 0%

Data large pages: 0
Data small pages: 8669
Large page distribution for data: 0%

cpu0_L1I TOTAL       ACCESS:   35096925  HIT:   26539195  MISS:    8557730  iACCESS:   35096925  iHIT:   26539195  iMISS:    8557730  dACCESS:          0  dHIT:          0  dMISS:          0  itACCESS:          0  itHIT:          0  itMISS:          0  dtACCESS:          0  dtHIT:          0  dtMISS:          0
cpu0_L1I LOAD         ACCESS:   10234254  HIT:    7845969  MISS:    2388285  iACCESS:   10234254  iHIT:    7845969  iMISS:    2388285  dACCESS:          0  dHIT:          0  dMISS:          0  itACCESS:          0  itHIT:          0  itMISS:          0  dtACCESS:          0  dtHIT:          0  dtMISS:          0
cpu0_L1I RFO          ACCESS:          0  HIT:          0  MISS:          0  iACCESS:          0  iHIT:          0  iMISS:          0  dACCESS:          0  dHIT:          0  dMISS:          0  itACCESS:          0  itHIT:          0  itMISS:          0  dtACCESS:          0  dtHIT:          0  dtMISS:          0
cpu0_L1I PREFETCH     ACCESS:   24862671  HIT:   18693226  MISS:    6169445  iACCESS:   24862671  iHIT:   18693226  iMISS:    6169445  dACCESS:          0  dHIT:          0  dMISS:          0  itACCESS:          0  itHIT:          0  itMISS:          0  dtACCESS:          0  dtHIT:          0  dtMISS:          0
cpu0_L1I WRITE        ACCESS:          0  HIT:          0  MISS:          0  iACCESS:          0  iHIT:          0  iMISS:          0  dACCESS:          0  dHIT:          0  dMISS:          0  itACCESS:          0  itHIT:          0  itMISS:          0  dtACCESS:          0  dtHIT:          0  dtMISS:          0
cpu0_L1I TRANSLATION  ACCESS:          0  HIT:          0  MISS:          0  iACCESS:          0  iHIT:          0  iMISS:          0  dACCESS:          0  dHIT:          0  dMISS:          0  itACCESS:          0  itHIT:          0  itMISS:          0  dtACCESS:          0  dtHIT:          0  dtMISS:          0
cpu0_L1I PREFETCH  REQUESTED:   27110020  ISSUED:   27107543  CROSSED:          0  USEFUL:    1935785  USELESS:     632407
cpu0_L1I AVERAGE iMISS LATENCY: 13.9762 cycles
cpu0_L1I AVERAGE dMISS LATENCY: 0 cycles
cpu0_L1I AVERAGE itMISS LATENCY: 0 cycles
cpu0_L1I AVERAGE dtMISS LATENCY: 0 cycles
cpu0_L1I PAGE CROSSINGS (TLB HIT):         0 
cpu0_L1I PAGE CROSSINGS (TLB MISS):         0 
cpu0_L1I AVERAGE MISS LATENCY: 13.9762 cycles
cpu0_ITLB TOTAL       ACCESS:   29021069  HIT:   27033622  MISS:    1987447  iACCESS:   29021069  iHIT:   27033622  iMISS:    1987447  dACCESS:          0  dHIT:          0  dMISS:          0  itACCESS:          0  itHIT:          0  itMISS:          0  dtACCESS:          0  dtHIT:          0  dtMISS:          0
cpu0_ITLB LOAD         ACCESS:   29021069  HIT:   27033622  MISS:    1987447  iACCESS:   29021069  iHIT:   27033622  iMISS:    1987447  dACCESS:          0  dHIT:          0  dMISS:          0  itACCESS:          0  itHIT:          0  itMISS:          0  dtACCESS:          0  dtHIT:          0  dtMISS:          0
cpu0_ITLB RFO          ACCESS:          0  HIT:          0  MISS:          0  iACCESS:          0  iHIT:          0  iMISS:          0  dACCESS:          0  dHIT:          0  dMISS:          0  itACCESS:          0  itHIT:          0  itMISS:          0  dtACCESS:          0  dtHIT:          0  dtMISS:          0
cpu0_ITLB PREFETCH     ACCESS:          0  HIT:          0  MISS:          0  iACCESS:          0  iHIT:          0  iMISS:          0  dACCESS:          0  dHIT:          0  dMISS:          0  itACCESS:          0  itHIT:          0  itMISS:          0  dtACCESS:          0  dtHIT:          0  dtMISS:          0
cpu0_ITLB WRITE        ACCESS:          0  HIT:          0  MISS:          0  iACCESS:          0  iHIT:          0  iMISS:          0  dACCESS:          0  dHIT:          0  dMISS:          0  itACCESS:          0  itHIT:          0  itMISS:          0  dtACCESS:          0  dtHIT:          0  dtMISS:          0
cpu0_ITLB TRANSLATION  ACCESS:          0  HIT:          0  MISS:          0  iACCESS:          0  iHIT:          0  iMISS:          0  dACCESS:          0  dHIT:          0  dMISS:          0  itACCESS:          0  itHIT:          0  itMISS:          0  dtACCESS:          0  dtHIT:          0  dtMISS:          0
cpu0_ITLB PREFETCH  REQUESTED:          0  ISSUED:          0  CROSSED:          0  USEFUL:     325409  USELESS:      61999
cpu0_ITLB AVERAGE iMISS LATENCY: 2.58627 cycles
cpu0_ITLB AVERAGE dMISS LATENCY: 0 cycles
cpu0_ITLB AVERAGE itMISS LATENCY: 0 cycles
cpu0_ITLB AVERAGE dtMISS LATENCY: 0 cycles
cpu0_ITLB PAGE CROSSINGS (TLB HIT):         0 
cpu0_ITLB PAGE CROSSINGS (TLB MISS):         0 
cpu0_ITLB AVERAGE MISS LATENCY: 2.58627 cycles
cpu0_DTLB TOTAL       ACCESS:   27696889  HIT:   25665418  MISS:    2031471  iACCESS:          0  iHIT:          0  iMISS:          0  dACCESS:   27696889  dHIT:   25665418  dMISS:    2031471  itACCESS:          0  itHIT:          0  itMISS:          0  dtACCESS:          0  dtHIT:          0  dtMISS:          0
cpu0_DTLB LOAD         ACCESS:   27696889  HIT:   25665418  MISS:    2031471  iACCESS:          0  iHIT:          0  iMISS:          0  dACCESS:   27696889  dHIT:   25665418  dMISS:    2031471  itACCESS:          0  itHIT:          0  itMISS:          0  dtACCESS:          0  dtHIT:          0  dtMISS:          0
cpu0_DTLB RFO          ACCESS:          0  HIT:          0  MISS:          0  iACCESS:          0  iHIT:          0  iMISS:          0  dACCESS:          0  dHIT:          0  dMISS:          0  itACCESS:          0  itHIT:          0  itMISS:          0  dtACCESS:          0  dtHIT:          0  dtMISS:          0
cpu0_DTLB PREFETCH     ACCESS:          0  HIT:          0  MISS:          0  iACCESS:          0  iHIT:          0  iMISS:          0  dACCESS:          0  dHIT:          0  dMISS:          0  itACCESS:          0  itHIT:          0  itMISS:          0  dtACCESS:          0  dtHIT:          0  dtMISS:          0
cpu0_DTLB WRITE        ACCESS:          0  HIT:          0  MISS:          0  iACCESS:          0  iHIT:          0  iMISS:          0  dACCESS:          0  dHIT:          0  dMISS:          0  itACCESS:          0  itHIT:          0  itMISS:          0  dtACCESS:          0  dtHIT:          0  dtMISS:          0
cpu0_DTLB TRANSLATION  ACCESS:          0  HIT:          0  MISS:          0  iACCESS:          0  iHIT:          0  iMISS:          0  dACCESS:          0  dHIT:          0  dMISS:          0  itACCESS:          0  itHIT:          0  itMISS:          0  dtACCESS:          0  dtHIT:          0  dtMISS:          0
cpu0_DTLB PREFETCH  REQUESTED:          0  ISSUED:          0  CROSSED:          0  USEFUL:          0  USELESS:          0
cpu0_DTLB AVERAGE iMISS LATENCY: 0 cycles
cpu0_DTLB AVERAGE dMISS LATENCY: 8.58124 cycles
cpu0_DTLB AVERAGE itMISS LATENCY: 0 cycles
cpu0_DTLB AVERAGE dtMISS LATENCY: 0 cycles
cpu0_DTLB PAGE CROSSINGS (TLB HIT):         0 
cpu0_DTLB PAGE CROSSINGS (TLB MISS):         0 
cpu0_DTLB AVERAGE MISS LATENCY: 8.58124 cycles
cpu0_STLB TOTAL       ACCESS:    1639767  HIT:    1477648  MISS:     162119  iACCESS:     387417  iHIT:     330997  iMISS:      56420  dACCESS:    1252350  dHIT:    1146651  dMISS:     105699  itACCESS:          0  itHIT:          0  itMISS:          0  dtACCESS:          0  dtHIT:          0  dtMISS:          0
cpu0_STLB LOAD         ACCESS:    1639767  HIT:    1477648  MISS:     162119  iACCESS:     387417  iHIT:     330997  iMISS:      56420  dACCESS:    1252350  dHIT:    1146651  dMISS:     105699  itACCESS:          0  itHIT:          0  itMISS:          0  dtACCESS:          0  dtHIT:          0  dtMISS:          0
cpu0_STLB RFO          ACCESS:          0  HIT:          0  MISS:          0  iACCESS:          0  iHIT:          0  iMISS:          0  dACCESS:          0  dHIT:          0  dMISS:          0  itACCESS:          0  itHIT:          0  itMISS:          0  dtACCESS:          0  dtHIT:          0  dtMISS:          0
cpu0_STLB PREFETCH     ACCESS:          0  HIT:          0  MISS:          0  iACCESS:          0  iHIT:          0  iMISS:          0  dACCESS:          0  dHIT:          0  dMISS:          0  itACCESS:          0  itHIT:          0  itMISS:          0  dtACCESS:          0  dtHIT:          0  dtMISS:          0
cpu0_STLB WRITE        ACCESS:          0  HIT:          0  MISS:          0  iACCESS:          0  iHIT:          0  iMISS:          0  dACCESS:          0  dHIT:          0  dMISS:          0  itACCESS:          0  itHIT:          0  itMISS:          0  dtACCESS:          0  dtHIT:          0  dtMISS:          0
cpu0_STLB TRANSLATION  ACCESS:          0  HIT:          0  MISS:          0  iACCESS:          0  iHIT:          0  iMISS:          0  dACCESS:          0  dHIT:          0  dMISS:          0  itACCESS:          0  itHIT:          0  itMISS:          0  dtACCESS:          0  dtHIT:          0  dtMISS:          0
cpu0_STLB PREFETCH  REQUESTED:          0  ISSUED:          0  CROSSED:          0  USEFUL:          0  USELESS:          0
cpu0_STLB AVERAGE iMISS LATENCY: 12.8541 cycles
cpu0_STLB AVERAGE dMISS LATENCY: 46.0245 cycles
cpu0_STLB AVERAGE itMISS LATENCY: 0 cycles
cpu0_STLB AVERAGE dtMISS LATENCY: 0 cycles
cpu0_STLB PAGE CROSSINGS (TLB HIT):         0 
cpu0_STLB PAGE CROSSINGS (TLB MISS):         0 
cpu0_STLB AVERAGE MISS LATENCY: 58.8785 cycles
cpu0_L1D TOTAL       ACCESS:   41457531  HIT:   37873337  MISS:    3584194  iACCESS:          0  iHIT:          0  iMISS:          0  dACCESS:   41234322  dHIT:   37854195  dMISS:    3380127  itACCESS:      61179  itHIT:       9021  itMISS:      52158  dtACCESS:     162030  dtHIT:      10121  dtMISS:     151909
cpu0_L1D LOAD         ACCESS:   18942956  HIT:   17400696  MISS:    1542260  iACCESS:          0  iHIT:          0  iMISS:          0  dACCESS:   18942956  dHIT:   17400696  dMISS:    1542260  itACCESS:          0  itHIT:          0  itMISS:          0  dtACCESS:          0  dtHIT:          0  dtMISS:          0
cpu0_L1D RFO          ACCESS:          0  HIT:          0  MISS:          0  iACCESS:          0  iHIT:          0  iMISS:          0  dACCESS:          0  dHIT:          0  dMISS:          0  itACCESS:          0  itHIT:          0  itMISS:          0  dtACCESS:          0  dtHIT:          0  dtMISS:          0
cpu0_L1D PREFETCH     ACCESS:   12167280  HIT:   10771366  MISS:    1395914  iACCESS:          0  iHIT:          0  iMISS:          0  dACCESS:   12167280  dHIT:   10771366  dMISS:    1395914  itACCESS:          0  itHIT:          0  itMISS:          0  dtACCESS:          0  dtHIT:          0  dtMISS:          0
cpu0_L1D WRITE        ACCESS:   10124086  HIT:    9682133  MISS:     441953  iACCESS:          0  iHIT:          0  iMISS:          0  dACCESS:   10124086  dHIT:    9682133  dMISS:     441953  itACCESS:          0  itHIT:          0  itMISS:          0  dtACCESS:          0  dtHIT:          0  dtMISS:          0
cpu0_L1D TRANSLATION  ACCESS:     223209  HIT:      19142  MISS:     204067  iACCESS:          0  iHIT:          0  iMISS:          0  dACCESS:          0  dHIT:          0  dMISS:          0  itACCESS:      61179  itHIT:       9021  itMISS:      52158  dtACCESS:     162030  dtHIT:      10121  dtMISS:     151909
cpu0_L1D PREFETCH  REQUESTED:   18942956  ISSUED:   16962085  CROSSED:          0  USEFUL:     310297  USELESS:     706479
cpu0_L1D AVERAGE iMISS LATENCY: 0 cycles
cpu0_L1D AVERAGE dMISS LATENCY: 34.833 cycles
cpu0_L1D AVERAGE itMISS LATENCY: 0.444272 cycles
cpu0_L1D AVERAGE dtMISS LATENCY: 1.48037 cycles
cpu0_L1D PAGE CROSSINGS (TLB HIT):         0 
cpu0_L1D PAGE CROSSINGS (TLB MISS):         0 
cpu0_L1D AVERAGE MISS LATENCY: 36.7576 cycles
cpu0_L2C TOTAL       ACCESS:    7026532  HIT:    1241637  MISS:    5784895  iACCESS:    3317739  iHIT:     695486  iMISS:    2622253  dACCESS:    3516760  dHIT:     388826  dMISS:    3127934  itACCESS:      52158  itHIT:      43218  itMISS:       8940  dtACCESS:     139875  dtHIT:     114107  dtMISS:      25768
cpu0_L2C LOAD         ACCESS:    1728901  HIT:     140716  MISS:    1588185  iACCESS:     789057  iHIT:      98998  iMISS:     690059  dACCESS:     939844  dHIT:      41718  dMISS:     898126  itACCESS:          0  itHIT:          0  itMISS:          0  dtACCESS:          0  dtHIT:          0  dtMISS:          0
cpu0_L2C RFO          ACCESS:     156666  HIT:       8178  MISS:     148488  iACCESS:          0  iHIT:          0  iMISS:          0  dACCESS:     156666  dHIT:       8178  dMISS:     148488  itACCESS:          0  itHIT:          0  itMISS:          0  dtACCESS:          0  dtHIT:          0  dtMISS:          0
cpu0_L2C PREFETCH     ACCESS:    4662493  HIT:     875452  MISS:    3787041  iACCESS:    2528682  iHIT:     596488  iMISS:    1932194  dACCESS:    2133811  dHIT:     278964  dMISS:    1854847  itACCESS:          0  itHIT:          0  itMISS:          0  dtACCESS:          0  dtHIT:          0  dtMISS:          0
cpu0_L2C WRITE        ACCESS:     286439  HIT:      59966  MISS:     226473  iACCESS:          0  iHIT:          0  iMISS:          0  dACCESS:     286439  dHIT:      59966  dMISS:     226473  itACCESS:          0  itHIT:          0  itMISS:          0  dtACCESS:          0  dtHIT:          0  dtMISS:          0
cpu0_L2C TRANSLATION  ACCESS:     192033  HIT:     157325  MISS:      34708  iACCESS:          0  iHIT:          0  iMISS:          0  dACCESS:          0  dHIT:          0  dMISS:          0  itACCESS:      52158  itHIT:      43218  itMISS:       8940  dtACCESS:     139875  dtHIT:     114107  dtMISS:      25768
cpu0_L2C PREFETCH  REQUESTED:    1401942  ISSUED:    1401942  CROSSED:          0  USEFUL:     418251  USELESS:     400654
cpu0_L2C AVERAGE iMISS LATENCY: 15.3111 cycles
cpu0_L2C AVERAGE dMISS LATENCY: 25.2405 cycles
cpu0_L2C AVERAGE itMISS LATENCY: 0.1924 cycles
cpu0_L2C AVERAGE dtMISS LATENCY: 0.693921 cycles
cpu0_L2C PAGE CROSSINGS (TLB HIT):         0 
cpu0_L2C PAGE CROSSINGS (TLB MISS):         0 
cpu0_L2C AVERAGE MISS LATENCY: 41.4378 cycles
LLC TOTAL       ACCESS:    5697826  HIT:    4845157  MISS:     852669  iACCESS:    2560262  iHIT:    2289584  iMISS:     270678  dACCESS:    3102856  dHIT:    2546003  dMISS:     556853  itACCESS:       8940  itHIT:       3471  itMISS:       5469  dtACCESS:      25768  dtHIT:       6099  dtMISS:      19669
LLC LOAD         ACCESS:    1586149  HIT:    1387278  MISS:     198871  iACCESS:     688339  iHIT:     629621  iMISS:      58718  dACCESS:     897810  dHIT:     757657  dMISS:     140153  itACCESS:          0  itHIT:          0  itMISS:          0  dtACCESS:          0  dtHIT:          0  dtMISS:          0
LLC RFO          ACCESS:     148488  HIT:     112050  MISS:      36438  iACCESS:          0  iHIT:          0  iMISS:          0  dACCESS:     148488  dHIT:     112050  dMISS:      36438  itACCESS:          0  itHIT:          0  itMISS:          0  dtACCESS:          0  dtHIT:          0  dtMISS:          0
LLC PREFETCH     ACCESS:    3669917  HIT:    3077703  MISS:     592214  iACCESS:    1871923  iHIT:    1659963  iMISS:     211960  dACCESS:    1797994  dHIT:    1417740  dMISS:     380254  itACCESS:          0  itHIT:          0  itMISS:          0  dtACCESS:          0  dtHIT:          0  dtMISS:          0
LLC WRITE        ACCESS:     258564  HIT:     258556  MISS:          8  iACCESS:          0  iHIT:          0  iMISS:          0  dACCESS:     258564  dHIT:     258556  dMISS:          8  itACCESS:          0  itHIT:          0  itMISS:          0  dtACCESS:          0  dtHIT:          0  dtMISS:          0
LLC TRANSLATION  ACCESS:      34708  HIT:       9570  MISS:      25138  iACCESS:          0  iHIT:          0  iMISS:          0  dACCESS:          0  dHIT:          0  dMISS:          0  itACCESS:       8940  itHIT:       3471  itMISS:       5469  dtACCESS:      25768  dtHIT:       6099  dtMISS:      19669
LLC PREFETCH  REQUESTED:          0  ISSUED:          0  CROSSED:          0  USEFUL:          0  USELESS:          0
LLC AVERAGE iMISS LATENCY: 45.897 cycles
LLC AVERAGE dMISS LATENCY: 106.749 cycles
LLC AVERAGE itMISS LATENCY: 1.1 cycles
LLC AVERAGE dtMISS LATENCY: 4.11306 cycles
LLC PAGE CROSSINGS (TLB HIT):         0 
LLC PAGE CROSSINGS (TLB MISS):         0 
LLC AVERAGE MISS LATENCY: 157.859 cycles

PageTableWalker TOTAL       ACCESS:      81365  
PageTableWalker AVERAGE LATENCY: 4.05888 cycles
PageTableWalker TOTAL LATENCY: 330250 cycles

DRAM Statistics
Channel 0
 RQ ROW_BUFFER_HIT:     242702
  ROW_BUFFER_MISS:     609932
 AVG DBUS CONGESTED CYCLE:      3.629
 WQ ROW_BUFFER_HIT:      21824
  ROW_BUFFER_MISS:      29725  FULL:          0

