last_page:0x200000000000000
VMEM_RES_CAP:0x100000
PAGE_SIZE:4096
LOG2_PAGE_SIZE:12
LOG2_PAGE_TABLE_SIZE:9
page_table_levels:5
WARNING: physical memory size is smaller than virtual memory size
FDiP enabled with aggresivity 16

*** ChampSim Multicore Out-of-Order Simulator ***

Warmup Instructions: 50000000
Simulation Instructions: 100000000
Number of CPUs: 1
Small page size: 4096
Large page size: 2097152

CPU 0 Bimodal branch predictor
Basic BTB sets: 1024 ways: 8 indirect buffer size: 4096 RAS size: 64
Instruction page size distrubution: 0
Loading instruction page size distribution from /home/bsc/bsc018186/scratch/itp_asplos25_AE/dump/srv61_ap.pdst
Data page size distrubution: 0
Loading data page size distribution from /home/bsc/bsc018186/scratch/itp_asplos25_AE/dump/srv61_ap.pdst
cpu0_L2C IP-based stride prefetcher
cpu0_L1D next line prefetcher
CHiRPing...
cpu0_L1I next line prefetcher
Off-chip DRAM Size: 4 GiB Channels: 1 Width: 64-bit Data Rate: 3200 MT/s
Heartbeat CPU 0 instructions: 10000003 cycles: 2500126 heartbeat IPC: 3.9998 cumulative IPC: 3.9998 (Simulation time: 0 hr 0 min 38 sec) 
Heartbeat CPU 0 instructions: 20000000 cycles: 5000161 heartbeat IPC: 3.99995 cumulative IPC: 3.99988 (Simulation time: 0 hr 1 min 18 sec) 
Heartbeat CPU 0 instructions: 30000003 cycles: 7500189 heartbeat IPC: 3.99996 cumulative IPC: 3.9999 (Simulation time: 0 hr 1 min 59 sec) 
Heartbeat CPU 0 instructions: 40000000 cycles: 10000320 heartbeat IPC: 3.99979 cumulative IPC: 3.99988 (Simulation time: 0 hr 2 min 40 sec) 
Heartbeat CPU 0 instructions: 50000001 cycles: 12500350 heartbeat IPC: 3.99996 cumulative IPC: 3.99989 (Simulation time: 0 hr 3 min 21 sec) 
Warmup finished CPU 0 instructions: 50000001 cycles: 12500351 cumulative IPC: 3.99989 (Simulation time: 0 hr 3 min 21 sec) 

Warmup complete CPU 0 instructions: 50000001 cycles: 12500351 (Simulation time: 0 hr 3 min 21 sec) 

Heartbeat CPU 0 instructions: 60000004 cycles: 30473425 heartbeat IPC: 0.556388 cumulative IPC: 0.556389 (Simulation time: 0 hr 4 min 30 sec) 
Heartbeat CPU 0 instructions: 70000001 cycles: 48644847 heartbeat IPC: 0.550315 cumulative IPC: 0.553335 (Simulation time: 0 hr 5 min 40 sec) 
Heartbeat CPU 0 instructions: 80000002 cycles: 66442583 heartbeat IPC: 0.56187 cumulative IPC: 0.556151 (Simulation time: 0 hr 6 min 49 sec) 
Heartbeat CPU 0 instructions: 90000000 cycles: 84522408 heartbeat IPC: 0.553103 cumulative IPC: 0.555386 (Simulation time: 0 hr 7 min 59 sec) 
Heartbeat CPU 0 instructions: 100000000 cycles: 102746872 heartbeat IPC: 0.548713 cumulative IPC: 0.554038 (Simulation time: 0 hr 9 min 9 sec) 
*** Reached end of trace: /gpfs/projects/bsc18/MN4/bsc18/romol/ChampSim/traces/qualcomm_srv/srv61_ap.champsimtrace.xz
Heartbeat CPU 0 instructions: 110000002 cycles: 121024518 heartbeat IPC: 0.547117 cumulative IPC: 0.552873 (Simulation time: 0 hr 10 min 19 sec) 
Heartbeat CPU 0 instructions: 120000000 cycles: 139176147 heartbeat IPC: 0.550915 cumulative IPC: 0.552592 (Simulation time: 0 hr 11 min 29 sec) 
Heartbeat CPU 0 instructions: 130000001 cycles: 156498944 heartbeat IPC: 0.577275 cumulative IPC: 0.555561 (Simulation time: 0 hr 12 min 38 sec) 
Heartbeat CPU 0 instructions: 140000004 cycles: 174558903 heartbeat IPC: 0.553712 cumulative IPC: 0.555355 (Simulation time: 0 hr 13 min 49 sec) 
Heartbeat CPU 0 instructions: 150000001 cycles: 192148266 heartbeat IPC: 0.568526 cumulative IPC: 0.556645 (Simulation time: 0 hr 15 min 0 sec) 
Simulation finished CPU 0 instructions: 100000000 cycles: 179647916 cumulative IPC: 0.556645 (Simulation time: 0 hr 15 min 0 sec) 

Simulation complete CPU 0 instructions: 100000000 cycles: 179647916 (Simulation time: 0 hr 15 min 0 sec) 


ChampSim completed all CPUs

Saving instructions large page distribution to /home/bsc/bsc018186/scratch/itp_asplos25_AE/dump/srv61_ap.pdst...
Saving data large page distribution to /home/bsc/bsc018186/scratch/itp_asplos25_AE/dump/srv61_ap.pdst...
=== Simulation ===
CPU 0 runs /gpfs/projects/bsc18/MN4/bsc18/romol/ChampSim/traces/qualcomm_srv/srv61_ap.champsimtrace.xz

Region of Interest Statistics

CPU 0 cumulative IPC: 0.556645 instructions: 100000000 cycles: 179647916
CPU 0 Branch Prediction Accuracy: 80.5502% MPKI: 35.0946 Average ROB Occupancy at Mispredict: 10.4902
Branch type MPKI
BRANCH_DIRECT_JUMP: 1.29427
BRANCH_INDIRECT: 17.5419
BRANCH_CONDITIONAL: 11.4374
BRANCH_DIRECT_CALL: 2.43121
BRANCH_INDIRECT_CALL: 0.689041
BRANCH_RETURN: 1.70092

Instructions large pages: 0
Instructions small pages: 5712
Large page distribution for instructions: 0%

Data large pages: 0
Data small pages: 4613
Large page distribution for data: 0%

cpu0_L1I TOTAL       ACCESS:   35630490  HIT:   27349502  MISS:    8280988  iACCESS:   35630490  iHIT:   27349502  iMISS:    8280988  dACCESS:          0  dHIT:          0  dMISS:          0  itACCESS:          0  itHIT:          0  itMISS:          0  dtACCESS:          0  dtHIT:          0  dtMISS:          0
cpu0_L1I LOAD         ACCESS:   10259842  HIT:    7987342  MISS:    2272500  iACCESS:   10259842  iHIT:    7987342  iMISS:    2272500  dACCESS:          0  dHIT:          0  dMISS:          0  itACCESS:          0  itHIT:          0  itMISS:          0  dtACCESS:          0  dtHIT:          0  dtMISS:          0
cpu0_L1I RFO          ACCESS:          0  HIT:          0  MISS:          0  iACCESS:          0  iHIT:          0  iMISS:          0  dACCESS:          0  dHIT:          0  dMISS:          0  itACCESS:          0  itHIT:          0  itMISS:          0  dtACCESS:          0  dtHIT:          0  dtMISS:          0
cpu0_L1I PREFETCH     ACCESS:   25370648  HIT:   19362160  MISS:    6008488  iACCESS:   25370648  iHIT:   19362160  iMISS:    6008488  dACCESS:          0  dHIT:          0  dMISS:          0  itACCESS:          0  itHIT:          0  itMISS:          0  dtACCESS:          0  dtHIT:          0  dtMISS:          0
cpu0_L1I WRITE        ACCESS:          0  HIT:          0  MISS:          0  iACCESS:          0  iHIT:          0  iMISS:          0  dACCESS:          0  dHIT:          0  dMISS:          0  itACCESS:          0  itHIT:          0  itMISS:          0  dtACCESS:          0  dtHIT:          0  dtMISS:          0
cpu0_L1I TRANSLATION  ACCESS:          0  HIT:          0  MISS:          0  iACCESS:          0  iHIT:          0  iMISS:          0  dACCESS:          0  dHIT:          0  dMISS:          0  itACCESS:          0  itHIT:          0  itMISS:          0  dtACCESS:          0  dtHIT:          0  dtMISS:          0
cpu0_L1I PREFETCH  REQUESTED:   27567969  ISSUED:   27565086  CROSSED:          0  USEFUL:    1956826  USELESS:     647833
cpu0_L1I AVERAGE iMISS LATENCY: 18.684 cycles
cpu0_L1I AVERAGE dMISS LATENCY: 0 cycles
cpu0_L1I AVERAGE itMISS LATENCY: 0 cycles
cpu0_L1I AVERAGE dtMISS LATENCY: 0 cycles
cpu0_L1I PAGE CROSSINGS (TLB HIT):         0 
cpu0_L1I PAGE CROSSINGS (TLB MISS):         0 
cpu0_L1I AVERAGE MISS LATENCY: 18.684 cycles
cpu0_ITLB TOTAL       ACCESS:   29808452  HIT:   27878007  MISS:    1930445  iACCESS:   29808452  iHIT:   27878007  iMISS:    1930445  dACCESS:          0  dHIT:          0  dMISS:          0  itACCESS:          0  itHIT:          0  itMISS:          0  dtACCESS:          0  dtHIT:          0  dtMISS:          0
cpu0_ITLB LOAD         ACCESS:   29808452  HIT:   27878007  MISS:    1930445  iACCESS:   29808452  iHIT:   27878007  iMISS:    1930445  dACCESS:          0  dHIT:          0  dMISS:          0  itACCESS:          0  itHIT:          0  itMISS:          0  dtACCESS:          0  dtHIT:          0  dtMISS:          0
cpu0_ITLB RFO          ACCESS:          0  HIT:          0  MISS:          0  iACCESS:          0  iHIT:          0  iMISS:          0  dACCESS:          0  dHIT:          0  dMISS:          0  itACCESS:          0  itHIT:          0  itMISS:          0  dtACCESS:          0  dtHIT:          0  dtMISS:          0
cpu0_ITLB PREFETCH     ACCESS:          0  HIT:          0  MISS:          0  iACCESS:          0  iHIT:          0  iMISS:          0  dACCESS:          0  dHIT:          0  dMISS:          0  itACCESS:          0  itHIT:          0  itMISS:          0  dtACCESS:          0  dtHIT:          0  dtMISS:          0
cpu0_ITLB WRITE        ACCESS:          0  HIT:          0  MISS:          0  iACCESS:          0  iHIT:          0  iMISS:          0  dACCESS:          0  dHIT:          0  dMISS:          0  itACCESS:          0  itHIT:          0  itMISS:          0  dtACCESS:          0  dtHIT:          0  dtMISS:          0
cpu0_ITLB TRANSLATION  ACCESS:          0  HIT:          0  MISS:          0  iACCESS:          0  iHIT:          0  iMISS:          0  dACCESS:          0  dHIT:          0  dMISS:          0  itACCESS:          0  itHIT:          0  itMISS:          0  dtACCESS:          0  dtHIT:          0  dtMISS:          0
cpu0_ITLB PREFETCH  REQUESTED:          0  ISSUED:          0  CROSSED:          0  USEFUL:     327997  USELESS:      60738
cpu0_ITLB AVERAGE iMISS LATENCY: 3.92533 cycles
cpu0_ITLB AVERAGE dMISS LATENCY: 0 cycles
cpu0_ITLB AVERAGE itMISS LATENCY: 0 cycles
cpu0_ITLB AVERAGE dtMISS LATENCY: 0 cycles
cpu0_ITLB PAGE CROSSINGS (TLB HIT):         0 
cpu0_ITLB PAGE CROSSINGS (TLB MISS):         0 
cpu0_ITLB AVERAGE MISS LATENCY: 3.92533 cycles
cpu0_DTLB TOTAL       ACCESS:   27982453  HIT:   26014580  MISS:    1967873  iACCESS:          0  iHIT:          0  iMISS:          0  dACCESS:   27982453  dHIT:   26014580  dMISS:    1967873  itACCESS:          0  itHIT:          0  itMISS:          0  dtACCESS:          0  dtHIT:          0  dtMISS:          0
cpu0_DTLB LOAD         ACCESS:   27982453  HIT:   26014580  MISS:    1967873  iACCESS:          0  iHIT:          0  iMISS:          0  dACCESS:   27982453  dHIT:   26014580  dMISS:    1967873  itACCESS:          0  itHIT:          0  itMISS:          0  dtACCESS:          0  dtHIT:          0  dtMISS:          0
cpu0_DTLB RFO          ACCESS:          0  HIT:          0  MISS:          0  iACCESS:          0  iHIT:          0  iMISS:          0  dACCESS:          0  dHIT:          0  dMISS:          0  itACCESS:          0  itHIT:          0  itMISS:          0  dtACCESS:          0  dtHIT:          0  dtMISS:          0
cpu0_DTLB PREFETCH     ACCESS:          0  HIT:          0  MISS:          0  iACCESS:          0  iHIT:          0  iMISS:          0  dACCESS:          0  dHIT:          0  dMISS:          0  itACCESS:          0  itHIT:          0  itMISS:          0  dtACCESS:          0  dtHIT:          0  dtMISS:          0
cpu0_DTLB WRITE        ACCESS:          0  HIT:          0  MISS:          0  iACCESS:          0  iHIT:          0  iMISS:          0  dACCESS:          0  dHIT:          0  dMISS:          0  itACCESS:          0  itHIT:          0  itMISS:          0  dtACCESS:          0  dtHIT:          0  dtMISS:          0
cpu0_DTLB TRANSLATION  ACCESS:          0  HIT:          0  MISS:          0  iACCESS:          0  iHIT:          0  iMISS:          0  dACCESS:          0  dHIT:          0  dMISS:          0  itACCESS:          0  itHIT:          0  itMISS:          0  dtACCESS:          0  dtHIT:          0  dtMISS:          0
cpu0_DTLB PREFETCH  REQUESTED:          0  ISSUED:          0  CROSSED:          0  USEFUL:          0  USELESS:          0
cpu0_DTLB AVERAGE iMISS LATENCY: 0 cycles
cpu0_DTLB AVERAGE dMISS LATENCY: 11.4867 cycles
cpu0_DTLB AVERAGE itMISS LATENCY: 0 cycles
cpu0_DTLB AVERAGE dtMISS LATENCY: 0 cycles
cpu0_DTLB PAGE CROSSINGS (TLB HIT):         0 
cpu0_DTLB PAGE CROSSINGS (TLB MISS):         0 
cpu0_DTLB AVERAGE MISS LATENCY: 11.4867 cycles
cpu0_STLB TOTAL       ACCESS:    1625836  HIT:    1393282  MISS:     232554  iACCESS:     388741  iHIT:     300855  iMISS:      87886  dACCESS:    1237095  dHIT:    1092427  dMISS:     144668  itACCESS:          0  itHIT:          0  itMISS:          0  dtACCESS:          0  dtHIT:          0  dtMISS:          0
cpu0_STLB LOAD         ACCESS:    1625836  HIT:    1393282  MISS:     232554  iACCESS:     388741  iHIT:     300855  iMISS:      87886  dACCESS:    1237095  dHIT:    1092427  dMISS:     144668  itACCESS:          0  itHIT:          0  itMISS:          0  dtACCESS:          0  dtHIT:          0  dtMISS:          0
cpu0_STLB RFO          ACCESS:          0  HIT:          0  MISS:          0  iACCESS:          0  iHIT:          0  iMISS:          0  dACCESS:          0  dHIT:          0  dMISS:          0  itACCESS:          0  itHIT:          0  itMISS:          0  dtACCESS:          0  dtHIT:          0  dtMISS:          0
cpu0_STLB PREFETCH     ACCESS:          0  HIT:          0  MISS:          0  iACCESS:          0  iHIT:          0  iMISS:          0  dACCESS:          0  dHIT:          0  dMISS:          0  itACCESS:          0  itHIT:          0  itMISS:          0  dtACCESS:          0  dtHIT:          0  dtMISS:          0
cpu0_STLB WRITE        ACCESS:          0  HIT:          0  MISS:          0  iACCESS:          0  iHIT:          0  iMISS:          0  dACCESS:          0  dHIT:          0  dMISS:          0  itACCESS:          0  itHIT:          0  itMISS:          0  dtACCESS:          0  dtHIT:          0  dtMISS:          0
cpu0_STLB TRANSLATION  ACCESS:          0  HIT:          0  MISS:          0  iACCESS:          0  iHIT:          0  iMISS:          0  dACCESS:          0  dHIT:          0  dMISS:          0  itACCESS:          0  itHIT:          0  itMISS:          0  dtACCESS:          0  dtHIT:          0  dtMISS:          0
cpu0_STLB PREFETCH  REQUESTED:          0  ISSUED:          0  CROSSED:          0  USEFUL:          0  USELESS:          0
cpu0_STLB AVERAGE iMISS LATENCY: 19.2505 cycles
cpu0_STLB AVERAGE dMISS LATENCY: 54.7044 cycles
cpu0_STLB AVERAGE itMISS LATENCY: 0 cycles
cpu0_STLB AVERAGE dtMISS LATENCY: 0 cycles
cpu0_STLB PAGE CROSSINGS (TLB HIT):         0 
cpu0_STLB PAGE CROSSINGS (TLB MISS):         0 
cpu0_STLB AVERAGE MISS LATENCY: 73.9549 cycles
cpu0_L1D TOTAL       ACCESS:   42311719  HIT:   38413394  MISS:    3898325  iACCESS:          0  iHIT:          0  iMISS:          0  dACCESS:   42021776  dHIT:   38386177  dMISS:    3635599  itACCESS:      94376  itHIT:      15259  itMISS:      79117  dtACCESS:     195567  dtHIT:      11958  dtMISS:     183609
cpu0_L1D LOAD         ACCESS:   19244878  HIT:   17602117  MISS:    1642761  iACCESS:          0  iHIT:          0  iMISS:          0  dACCESS:   19244878  dHIT:   17602117  dMISS:    1642761  itACCESS:          0  itHIT:          0  itMISS:          0  dtACCESS:          0  dtHIT:          0  dtMISS:          0
cpu0_L1D RFO          ACCESS:          0  HIT:          0  MISS:          0  iACCESS:          0  iHIT:          0  iMISS:          0  dACCESS:          0  dHIT:          0  dMISS:          0  itACCESS:          0  itHIT:          0  itMISS:          0  dtACCESS:          0  dtHIT:          0  dtMISS:          0
cpu0_L1D PREFETCH     ACCESS:   12616527  HIT:   11099872  MISS:    1516655  iACCESS:          0  iHIT:          0  iMISS:          0  dACCESS:   12616527  dHIT:   11099872  dMISS:    1516655  itACCESS:          0  itHIT:          0  itMISS:          0  dtACCESS:          0  dtHIT:          0  dtMISS:          0
cpu0_L1D WRITE        ACCESS:   10160371  HIT:    9684188  MISS:     476183  iACCESS:          0  iHIT:          0  iMISS:          0  dACCESS:   10160371  dHIT:    9684188  dMISS:     476183  itACCESS:          0  itHIT:          0  itMISS:          0  dtACCESS:          0  dtHIT:          0  dtMISS:          0
cpu0_L1D TRANSLATION  ACCESS:     289943  HIT:      27217  MISS:     262726  iACCESS:          0  iHIT:          0  iMISS:          0  dACCESS:          0  dHIT:          0  dMISS:          0  itACCESS:      94376  itHIT:      15259  itMISS:      79117  dtACCESS:     195567  dtHIT:      11958  dtMISS:     183609
cpu0_L1D PREFETCH  REQUESTED:   19244878  ISSUED:   17267283  CROSSED:          0  USEFUL:     311503  USELESS:     703613
cpu0_L1D AVERAGE iMISS LATENCY: 0 cycles
cpu0_L1D AVERAGE dMISS LATENCY: 40.4663 cycles
cpu0_L1D AVERAGE itMISS LATENCY: 0.951051 cycles
cpu0_L1D AVERAGE dtMISS LATENCY: 2.77023 cycles
cpu0_L1D PAGE CROSSINGS (TLB HIT):         0 
cpu0_L1D PAGE CROSSINGS (TLB MISS):         0 
cpu0_L1D AVERAGE MISS LATENCY: 44.1876 cycles
cpu0_L2C TOTAL       ACCESS:    7211082  HIT:    1631585  MISS:    5579497  iACCESS:    3326581  iHIT:     805642  iMISS:    2520939  dACCESS:    3624653  dHIT:     660523  dMISS:    2964130  itACCESS:      78955  itHIT:      57664  itMISS:      21291  dtACCESS:     180893  dtHIT:     107756  dtMISS:      73137
cpu0_L2C LOAD         ACCESS:    1706173  HIT:     257237  MISS:    1448936  iACCESS:     757628  iHIT:     127946  iMISS:     629682  dACCESS:     948545  dHIT:     129291  dMISS:     819254  itACCESS:          0  itHIT:          0  itMISS:          0  dtACCESS:          0  dtHIT:          0  dtMISS:          0
cpu0_L2C RFO          ACCESS:     166616  HIT:      43726  MISS:     122890  iACCESS:          0  iHIT:          0  iMISS:          0  dACCESS:     166616  dHIT:      43726  dMISS:     122890  itACCESS:          0  itHIT:          0  itMISS:          0  dtACCESS:          0  dtHIT:          0  dtMISS:          0
cpu0_L2C PREFETCH     ACCESS:    4801000  HIT:    1038170  MISS:    3762830  iACCESS:    2568953  iHIT:     677696  iMISS:    1891257  dACCESS:    2232047  dHIT:     360474  dMISS:    1871573  itACCESS:          0  itHIT:          0  itMISS:          0  dtACCESS:          0  dtHIT:          0  dtMISS:          0
cpu0_L2C WRITE        ACCESS:     277445  HIT:     127032  MISS:     150413  iACCESS:          0  iHIT:          0  iMISS:          0  dACCESS:     277445  dHIT:     127032  dMISS:     150413  itACCESS:          0  itHIT:          0  itMISS:          0  dtACCESS:          0  dtHIT:          0  dtMISS:          0
cpu0_L2C TRANSLATION  ACCESS:     259848  HIT:     165420  MISS:      94428  iACCESS:          0  iHIT:          0  iMISS:          0  dACCESS:          0  dHIT:          0  dMISS:          0  itACCESS:      78955  itHIT:      57664  itMISS:      21291  dtACCESS:     180893  dtHIT:     107756  dtMISS:      73137
cpu0_L2C PREFETCH  REQUESTED:    1472427  ISSUED:    1472385  CROSSED:          0  USEFUL:     406320  USELESS:     429445
cpu0_L2C AVERAGE iMISS LATENCY: 22.463 cycles
cpu0_L2C AVERAGE dMISS LATENCY: 35.7365 cycles
cpu0_L2C AVERAGE itMISS LATENCY: 0.532902 cycles
cpu0_L2C AVERAGE dtMISS LATENCY: 1.62942 cycles
cpu0_L2C PAGE CROSSINGS (TLB HIT):         0 
cpu0_L2C PAGE CROSSINGS (TLB MISS):         0 
cpu0_L2C AVERAGE MISS LATENCY: 60.3618 cycles
LLC TOTAL       ACCESS:    5403267  HIT:    3903554  MISS:    1499713  iACCESS:    2446698  iHIT:    1914049  iMISS:     532649  dACCESS:    2862141  dHIT:    1951448  dMISS:     910693  itACCESS:      21291  itHIT:       6636  itMISS:      14655  dtACCESS:      73137  dtHIT:      31421  dtMISS:      41716
LLC LOAD         ACCESS:    1442939  HIT:    1114794  MISS:     328145  iACCESS:     628198  iHIT:     518686  iMISS:     109512  dACCESS:     814741  dHIT:     596108  dMISS:     218633  itACCESS:          0  itHIT:          0  itMISS:          0  dtACCESS:          0  dtHIT:          0  dtMISS:          0
LLC RFO          ACCESS:     122889  HIT:      65409  MISS:      57480  iACCESS:          0  iHIT:          0  iMISS:          0  dACCESS:     122889  dHIT:      65409  dMISS:      57480  itACCESS:          0  itHIT:          0  itMISS:          0  dtACCESS:          0  dtHIT:          0  dtMISS:          0
LLC PREFETCH     ACCESS:    3594847  HIT:    2547733  MISS:    1047114  iACCESS:    1818500  iHIT:    1395363  iMISS:     423137  dACCESS:    1776347  dHIT:    1152370  dMISS:     623977  itACCESS:          0  itHIT:          0  itMISS:          0  dtACCESS:          0  dtHIT:          0  dtMISS:          0
LLC WRITE        ACCESS:     148164  HIT:     137561  MISS:      10603  iACCESS:          0  iHIT:          0  iMISS:          0  dACCESS:     148164  dHIT:     137561  dMISS:      10603  itACCESS:          0  itHIT:          0  itMISS:          0  dtACCESS:          0  dtHIT:          0  dtMISS:          0
LLC TRANSLATION  ACCESS:      94428  HIT:      38057  MISS:      56371  iACCESS:          0  iHIT:          0  iMISS:          0  dACCESS:          0  dHIT:          0  dMISS:          0  itACCESS:      21291  itHIT:       6636  itMISS:      14655  dtACCESS:      73137  dtHIT:      31421  dtMISS:      41716
LLC PREFETCH  REQUESTED:          0  ISSUED:          0  CROSSED:          0  USEFUL:          0  USELESS:          0
LLC AVERAGE iMISS LATENCY: 51.9823 cycles
LLC AVERAGE dMISS LATENCY: 98.5137 cycles
LLC AVERAGE itMISS LATENCY: 1.70378 cycles
LLC AVERAGE dtMISS LATENCY: 5.10893 cycles
LLC PAGE CROSSINGS (TLB HIT):         0 
LLC PAGE CROSSINGS (TLB MISS):         0 
LLC AVERAGE MISS LATENCY: 157.309 cycles

PageTableWalker TOTAL       ACCESS:     116010  
PageTableWalker AVERAGE LATENCY: 4.14628 cycles
PageTableWalker TOTAL LATENCY: 481009 cycles

DRAM Statistics
Channel 0
 RQ ROW_BUFFER_HIT:     441426
  ROW_BUFFER_MISS:    1042564
 AVG DBUS CONGESTED CYCLE:    3.63309
 WQ ROW_BUFFER_HIT:      30186
  ROW_BUFFER_MISS:      23828  FULL:          0

