last_page:0x200000000000000
VMEM_RES_CAP:0x100000
PAGE_SIZE:4096
LOG2_PAGE_SIZE:12
LOG2_PAGE_TABLE_SIZE:9
page_table_levels:5
WARNING: physical memory size is smaller than virtual memory size
FDiP enabled with aggresivity 16

*** ChampSim Multicore Out-of-Order Simulator ***

Warmup Instructions: 50000000
Simulation Instructions: 100000000
Number of CPUs: 1
Small page size: 4096
Large page size: 2097152

CPU 0 Bimodal branch predictor
Basic BTB sets: 1024 ways: 8 indirect buffer size: 4096 RAS size: 64
Instruction page size distrubution: 0
Loading instruction page size distribution from /home/bsc/bsc018186/scratch/itp_asplos25_AE/dump/srv617_ap.pdst
Data page size distrubution: 0
Loading data page size distribution from /home/bsc/bsc018186/scratch/itp_asplos25_AE/dump/srv617_ap.pdst
cpu0_L2C IP-based stride prefetcher
cpu0_L1D next line prefetcher
cpu0_STLB using iTP with max lru@8
cpu0_STLB using iTP with instr@0 and data@2
Init sat counter with 3 bits (max:50).
cpu0_L1I next line prefetcher
Off-chip DRAM Size: 4 GiB Channels: 1 Width: 64-bit Data Rate: 3200 MT/s
Heartbeat CPU 0 instructions: 10000003 cycles: 2500202 heartbeat IPC: 3.99968 cumulative IPC: 3.99968 (Simulation time: 0 hr 0 min 37 sec) 
Heartbeat CPU 0 instructions: 20000001 cycles: 5000225 heartbeat IPC: 3.99997 cumulative IPC: 3.99983 (Simulation time: 0 hr 1 min 17 sec) 
Heartbeat CPU 0 instructions: 30000000 cycles: 7501516 heartbeat IPC: 3.99794 cumulative IPC: 3.9992 (Simulation time: 0 hr 1 min 57 sec) 
Heartbeat CPU 0 instructions: 40000000 cycles: 10001635 heartbeat IPC: 3.99981 cumulative IPC: 3.99935 (Simulation time: 0 hr 2 min 39 sec) 
Heartbeat CPU 0 instructions: 50000001 cycles: 12501638 heartbeat IPC: 4 cumulative IPC: 3.99948 (Simulation time: 0 hr 3 min 21 sec) 
Warmup finished CPU 0 instructions: 50000001 cycles: 12501639 cumulative IPC: 3.99948 (Simulation time: 0 hr 3 min 21 sec) 

Warmup complete CPU 0 instructions: 50000001 cycles: 12501639 (Simulation time: 0 hr 3 min 21 sec) 

Heartbeat CPU 0 instructions: 60000001 cycles: 31479467 heartbeat IPC: 0.526931 cumulative IPC: 0.526931 (Simulation time: 0 hr 4 min 33 sec) 
Heartbeat CPU 0 instructions: 70000000 cycles: 50091533 heartbeat IPC: 0.537286 cumulative IPC: 0.532058 (Simulation time: 0 hr 5 min 45 sec) 
Heartbeat CPU 0 instructions: 80000001 cycles: 61950751 heartbeat IPC: 0.843227 cumulative IPC: 0.606685 (Simulation time: 0 hr 6 min 43 sec) 
Heartbeat CPU 0 instructions: 90000002 cycles: 81572183 heartbeat IPC: 0.509647 cumulative IPC: 0.579119 (Simulation time: 0 hr 7 min 56 sec) 
Heartbeat CPU 0 instructions: 100000001 cycles: 99186925 heartbeat IPC: 0.567707 cumulative IPC: 0.5768 (Simulation time: 0 hr 9 min 7 sec) 
*** Reached end of trace: /gpfs/projects/bsc18/MN4/bsc18/romol/ChampSim/traces/qualcomm_srv/srv617_ap.champsimtrace.xz
Heartbeat CPU 0 instructions: 110000003 cycles: 117855314 heartbeat IPC: 0.535665 cumulative IPC: 0.569511 (Simulation time: 0 hr 10 min 20 sec) 
Heartbeat CPU 0 instructions: 120000003 cycles: 136789128 heartbeat IPC: 0.528156 cumulative IPC: 0.563211 (Simulation time: 0 hr 11 min 32 sec) 
Heartbeat CPU 0 instructions: 130000000 cycles: 155588463 heartbeat IPC: 0.531934 cumulative IPC: 0.559102 (Simulation time: 0 hr 12 min 44 sec) 
Heartbeat CPU 0 instructions: 140000004 cycles: 175053426 heartbeat IPC: 0.513744 cumulative IPC: 0.55367 (Simulation time: 0 hr 13 min 56 sec) 
Heartbeat CPU 0 instructions: 150000000 cycles: 194610285 heartbeat IPC: 0.51133 cumulative IPC: 0.549123 (Simulation time: 0 hr 15 min 8 sec) 
Simulation finished CPU 0 instructions: 100000004 cycles: 182108648 cumulative IPC: 0.549123 (Simulation time: 0 hr 15 min 8 sec) 

Simulation complete CPU 0 instructions: 100000004 cycles: 182108648 (Simulation time: 0 hr 15 min 8 sec) 


ChampSim completed all CPUs

Saving instructions large page distribution to /home/bsc/bsc018186/scratch/itp_asplos25_AE/dump/srv617_ap.pdst...
Saving data large page distribution to /home/bsc/bsc018186/scratch/itp_asplos25_AE/dump/srv617_ap.pdst...
=== Simulation ===
CPU 0 runs /gpfs/projects/bsc18/MN4/bsc18/romol/ChampSim/traces/qualcomm_srv/srv617_ap.champsimtrace.xz

Region of Interest Statistics

CPU 0 cumulative IPC: 0.549123 instructions: 100000004 cycles: 182108648
CPU 0 Branch Prediction Accuracy: 79.8046% MPKI: 36.7393 Average ROB Occupancy at Mispredict: 10.7506
Branch type MPKI
BRANCH_DIRECT_JUMP: 1.2705
BRANCH_INDIRECT: 18.5871
BRANCH_CONDITIONAL: 11.9361
BRANCH_DIRECT_CALL: 2.33997
BRANCH_INDIRECT_CALL: 0.99686
BRANCH_RETURN: 1.60878

Instructions large pages: 0
Instructions small pages: 6971
Large page distribution for instructions: 0%

Data large pages: 0
Data small pages: 5426
Large page distribution for data: 0%

cpu0_L1I TOTAL       ACCESS:   35385838  HIT:   27457884  MISS:    7927954  iACCESS:   35385838  iHIT:   27457884  iMISS:    7927954  dACCESS:          0  dHIT:          0  dMISS:          0  itACCESS:          0  itHIT:          0  itMISS:          0  dtACCESS:          0  dtHIT:          0  dtMISS:          0
cpu0_L1I LOAD         ACCESS:   10069493  HIT:    7892357  MISS:    2177136  iACCESS:   10069493  iHIT:    7892357  iMISS:    2177136  dACCESS:          0  dHIT:          0  dMISS:          0  itACCESS:          0  itHIT:          0  itMISS:          0  dtACCESS:          0  dtHIT:          0  dtMISS:          0
cpu0_L1I RFO          ACCESS:          0  HIT:          0  MISS:          0  iACCESS:          0  iHIT:          0  iMISS:          0  dACCESS:          0  dHIT:          0  dMISS:          0  itACCESS:          0  itHIT:          0  itMISS:          0  dtACCESS:          0  dtHIT:          0  dtMISS:          0
cpu0_L1I PREFETCH     ACCESS:   25316345  HIT:   19565527  MISS:    5750818  iACCESS:   25316345  iHIT:   19565527  iMISS:    5750818  dACCESS:          0  dHIT:          0  dMISS:          0  itACCESS:          0  itHIT:          0  itMISS:          0  dtACCESS:          0  dtHIT:          0  dtMISS:          0
cpu0_L1I WRITE        ACCESS:          0  HIT:          0  MISS:          0  iACCESS:          0  iHIT:          0  iMISS:          0  dACCESS:          0  dHIT:          0  dMISS:          0  itACCESS:          0  itHIT:          0  itMISS:          0  dtACCESS:          0  dtHIT:          0  dtMISS:          0
cpu0_L1I TRANSLATION  ACCESS:          0  HIT:          0  MISS:          0  iACCESS:          0  iHIT:          0  iMISS:          0  dACCESS:          0  dHIT:          0  dMISS:          0  itACCESS:          0  itHIT:          0  itMISS:          0  dtACCESS:          0  dtHIT:          0  dtMISS:          0
cpu0_L1I PREFETCH  REQUESTED:   27554714  ISSUED:   27552410  CROSSED:          0  USEFUL:    1905436  USELESS:     625923
cpu0_L1I AVERAGE iMISS LATENCY: 18.7056 cycles
cpu0_L1I AVERAGE dMISS LATENCY: 0 cycles
cpu0_L1I AVERAGE itMISS LATENCY: 0 cycles
cpu0_L1I AVERAGE dtMISS LATENCY: 0 cycles
cpu0_L1I PAGE CROSSINGS (TLB HIT):         0 
cpu0_L1I PAGE CROSSINGS (TLB MISS):         0 
cpu0_L1I AVERAGE MISS LATENCY: 18.7056 cycles
cpu0_ITLB TOTAL       ACCESS:   29651325  HIT:   27839885  MISS:    1811440  iACCESS:   29651325  iHIT:   27839885  iMISS:    1811440  dACCESS:          0  dHIT:          0  dMISS:          0  itACCESS:          0  itHIT:          0  itMISS:          0  dtACCESS:          0  dtHIT:          0  dtMISS:          0
cpu0_ITLB LOAD         ACCESS:   29651325  HIT:   27839885  MISS:    1811440  iACCESS:   29651325  iHIT:   27839885  iMISS:    1811440  dACCESS:          0  dHIT:          0  dMISS:          0  itACCESS:          0  itHIT:          0  itMISS:          0  dtACCESS:          0  dtHIT:          0  dtMISS:          0
cpu0_ITLB RFO          ACCESS:          0  HIT:          0  MISS:          0  iACCESS:          0  iHIT:          0  iMISS:          0  dACCESS:          0  dHIT:          0  dMISS:          0  itACCESS:          0  itHIT:          0  itMISS:          0  dtACCESS:          0  dtHIT:          0  dtMISS:          0
cpu0_ITLB PREFETCH     ACCESS:          0  HIT:          0  MISS:          0  iACCESS:          0  iHIT:          0  iMISS:          0  dACCESS:          0  dHIT:          0  dMISS:          0  itACCESS:          0  itHIT:          0  itMISS:          0  dtACCESS:          0  dtHIT:          0  dtMISS:          0
cpu0_ITLB WRITE        ACCESS:          0  HIT:          0  MISS:          0  iACCESS:          0  iHIT:          0  iMISS:          0  dACCESS:          0  dHIT:          0  dMISS:          0  itACCESS:          0  itHIT:          0  itMISS:          0  dtACCESS:          0  dtHIT:          0  dtMISS:          0
cpu0_ITLB TRANSLATION  ACCESS:          0  HIT:          0  MISS:          0  iACCESS:          0  iHIT:          0  iMISS:          0  dACCESS:          0  dHIT:          0  dMISS:          0  itACCESS:          0  itHIT:          0  itMISS:          0  dtACCESS:          0  dtHIT:          0  dtMISS:          0
cpu0_ITLB PREFETCH  REQUESTED:          0  ISSUED:          0  CROSSED:          0  USEFUL:     309827  USELESS:      61057
cpu0_ITLB AVERAGE iMISS LATENCY: 3.40645 cycles
cpu0_ITLB AVERAGE dMISS LATENCY: 0 cycles
cpu0_ITLB AVERAGE itMISS LATENCY: 0 cycles
cpu0_ITLB AVERAGE dtMISS LATENCY: 0 cycles
cpu0_ITLB PAGE CROSSINGS (TLB HIT):         0 
cpu0_ITLB PAGE CROSSINGS (TLB MISS):         0 
cpu0_ITLB AVERAGE MISS LATENCY: 3.40645 cycles
cpu0_DTLB TOTAL       ACCESS:   28738992  HIT:   26899531  MISS:    1839461  iACCESS:          0  iHIT:          0  iMISS:          0  dACCESS:   28738992  dHIT:   26899531  dMISS:    1839461  itACCESS:          0  itHIT:          0  itMISS:          0  dtACCESS:          0  dtHIT:          0  dtMISS:          0
cpu0_DTLB LOAD         ACCESS:   28738992  HIT:   26899531  MISS:    1839461  iACCESS:          0  iHIT:          0  iMISS:          0  dACCESS:   28738992  dHIT:   26899531  dMISS:    1839461  itACCESS:          0  itHIT:          0  itMISS:          0  dtACCESS:          0  dtHIT:          0  dtMISS:          0
cpu0_DTLB RFO          ACCESS:          0  HIT:          0  MISS:          0  iACCESS:          0  iHIT:          0  iMISS:          0  dACCESS:          0  dHIT:          0  dMISS:          0  itACCESS:          0  itHIT:          0  itMISS:          0  dtACCESS:          0  dtHIT:          0  dtMISS:          0
cpu0_DTLB PREFETCH     ACCESS:          0  HIT:          0  MISS:          0  iACCESS:          0  iHIT:          0  iMISS:          0  dACCESS:          0  dHIT:          0  dMISS:          0  itACCESS:          0  itHIT:          0  itMISS:          0  dtACCESS:          0  dtHIT:          0  dtMISS:          0
cpu0_DTLB WRITE        ACCESS:          0  HIT:          0  MISS:          0  iACCESS:          0  iHIT:          0  iMISS:          0  dACCESS:          0  dHIT:          0  dMISS:          0  itACCESS:          0  itHIT:          0  itMISS:          0  dtACCESS:          0  dtHIT:          0  dtMISS:          0
cpu0_DTLB TRANSLATION  ACCESS:          0  HIT:          0  MISS:          0  iACCESS:          0  iHIT:          0  iMISS:          0  dACCESS:          0  dHIT:          0  dMISS:          0  itACCESS:          0  itHIT:          0  itMISS:          0  dtACCESS:          0  dtHIT:          0  dtMISS:          0
cpu0_DTLB PREFETCH  REQUESTED:          0  ISSUED:          0  CROSSED:          0  USEFUL:          0  USELESS:          0
cpu0_DTLB AVERAGE iMISS LATENCY: 0 cycles
cpu0_DTLB AVERAGE dMISS LATENCY: 14.0632 cycles
cpu0_DTLB AVERAGE itMISS LATENCY: 0 cycles
cpu0_DTLB AVERAGE dtMISS LATENCY: 0 cycles
cpu0_DTLB PAGE CROSSINGS (TLB HIT):         0 
cpu0_DTLB PAGE CROSSINGS (TLB MISS):         0 
cpu0_DTLB AVERAGE MISS LATENCY: 14.0632 cycles
cpu0_STLB TOTAL       ACCESS:    1516096  HIT:    1315731  MISS:     200365  iACCESS:     370906  iHIT:     338491  iMISS:      32415  dACCESS:    1145190  dHIT:     977240  dMISS:     167950  itACCESS:          0  itHIT:          0  itMISS:          0  dtACCESS:          0  dtHIT:          0  dtMISS:          0
cpu0_STLB LOAD         ACCESS:    1516096  HIT:    1315731  MISS:     200365  iACCESS:     370906  iHIT:     338491  iMISS:      32415  dACCESS:    1145190  dHIT:     977240  dMISS:     167950  itACCESS:          0  itHIT:          0  itMISS:          0  dtACCESS:          0  dtHIT:          0  dtMISS:          0
cpu0_STLB RFO          ACCESS:          0  HIT:          0  MISS:          0  iACCESS:          0  iHIT:          0  iMISS:          0  dACCESS:          0  dHIT:          0  dMISS:          0  itACCESS:          0  itHIT:          0  itMISS:          0  dtACCESS:          0  dtHIT:          0  dtMISS:          0
cpu0_STLB PREFETCH     ACCESS:          0  HIT:          0  MISS:          0  iACCESS:          0  iHIT:          0  iMISS:          0  dACCESS:          0  dHIT:          0  dMISS:          0  itACCESS:          0  itHIT:          0  itMISS:          0  dtACCESS:          0  dtHIT:          0  dtMISS:          0
cpu0_STLB WRITE        ACCESS:          0  HIT:          0  MISS:          0  iACCESS:          0  iHIT:          0  iMISS:          0  dACCESS:          0  dHIT:          0  dMISS:          0  itACCESS:          0  itHIT:          0  itMISS:          0  dtACCESS:          0  dtHIT:          0  dtMISS:          0
cpu0_STLB TRANSLATION  ACCESS:          0  HIT:          0  MISS:          0  iACCESS:          0  iHIT:          0  iMISS:          0  dACCESS:          0  dHIT:          0  dMISS:          0  itACCESS:          0  itHIT:          0  itMISS:          0  dtACCESS:          0  dtHIT:          0  dtMISS:          0
cpu0_STLB PREFETCH  REQUESTED:          0  ISSUED:          0  CROSSED:          0  USEFUL:          0  USELESS:          0
cpu0_STLB AVERAGE iMISS LATENCY: 16.3136 cycles
cpu0_STLB AVERAGE dMISS LATENCY: 83.1939 cycles
cpu0_STLB AVERAGE itMISS LATENCY: 0 cycles
cpu0_STLB AVERAGE dtMISS LATENCY: 0 cycles
cpu0_STLB PAGE CROSSINGS (TLB HIT):         0 
cpu0_STLB PAGE CROSSINGS (TLB MISS):         0 
cpu0_STLB AVERAGE MISS LATENCY: 99.5074 cycles
cpu0_L1D TOTAL       ACCESS:   44161599  HIT:   39594913  MISS:    4566686  iACCESS:          0  iHIT:          0  iMISS:          0  dACCESS:   43886839  dHIT:   39578459  dMISS:    4308380  itACCESS:      39503  itHIT:       3577  itMISS:      35926  dtACCESS:     235257  dtHIT:      12877  dtMISS:     222380
cpu0_L1D LOAD         ACCESS:   20450617  HIT:   18493008  MISS:    1957609  iACCESS:          0  iHIT:          0  iMISS:          0  dACCESS:   20450617  dHIT:   18493008  dMISS:    1957609  itACCESS:          0  itHIT:          0  itMISS:          0  dtACCESS:          0  dtHIT:          0  dtMISS:          0
cpu0_L1D RFO          ACCESS:          0  HIT:          0  MISS:          0  iACCESS:          0  iHIT:          0  iMISS:          0  dACCESS:          0  dHIT:          0  dMISS:          0  itACCESS:          0  itHIT:          0  itMISS:          0  dtACCESS:          0  dtHIT:          0  dtMISS:          0
cpu0_L1D PREFETCH     ACCESS:   13395535  HIT:   11532484  MISS:    1863051  iACCESS:          0  iHIT:          0  iMISS:          0  dACCESS:   13395535  dHIT:   11532484  dMISS:    1863051  itACCESS:          0  itHIT:          0  itMISS:          0  dtACCESS:          0  dtHIT:          0  dtMISS:          0
cpu0_L1D WRITE        ACCESS:   10040687  HIT:    9552967  MISS:     487720  iACCESS:          0  iHIT:          0  iMISS:          0  dACCESS:   10040687  dHIT:    9552967  dMISS:     487720  itACCESS:          0  itHIT:          0  itMISS:          0  dtACCESS:          0  dtHIT:          0  dtMISS:          0
cpu0_L1D TRANSLATION  ACCESS:     274760  HIT:      16454  MISS:     258306  iACCESS:          0  iHIT:          0  iMISS:          0  dACCESS:          0  dHIT:          0  dMISS:          0  itACCESS:      39503  itHIT:       3577  itMISS:      35926  dtACCESS:     235257  dtHIT:      12877  dtMISS:     222380
cpu0_L1D PREFETCH  REQUESTED:   20450617  ISSUED:   17920096  CROSSED:          0  USEFUL:     317407  USELESS:     693456
cpu0_L1D AVERAGE iMISS LATENCY: 0 cycles
cpu0_L1D AVERAGE dMISS LATENCY: 35.5345 cycles
cpu0_L1D AVERAGE itMISS LATENCY: 0.643489 cycles
cpu0_L1D AVERAGE dtMISS LATENCY: 3.16897 cycles
cpu0_L1D PAGE CROSSINGS (TLB HIT):         0 
cpu0_L1D PAGE CROSSINGS (TLB MISS):         0 
cpu0_L1D AVERAGE MISS LATENCY: 39.3469 cycles
cpu0_L2C TOTAL       ACCESS:    7054273  HIT:    1571960  MISS:    5482313  iACCESS:    3216986  iHIT:     795748  iMISS:    2421238  dACCESS:    3591710  dHIT:     649629  dMISS:    2942081  itACCESS:      32483  itHIT:      14522  itMISS:      17961  dtACCESS:     213094  dtHIT:     112061  dtMISS:     101033
cpu0_L2C LOAD         ACCESS:    1666971  HIT:     251583  MISS:    1415388  iACCESS:     720645  iHIT:     120161  iMISS:     600484  dACCESS:     946326  dHIT:     131422  dMISS:     814904  itACCESS:          0  itHIT:          0  itMISS:          0  dtACCESS:          0  dtHIT:          0  dtMISS:          0
cpu0_L2C RFO          ACCESS:     163481  HIT:      41209  MISS:     122272  iACCESS:          0  iHIT:          0  iMISS:          0  dACCESS:     163481  dHIT:      41209  dMISS:     122272  itACCESS:          0  itHIT:          0  itMISS:          0  dtACCESS:          0  dtHIT:          0  dtMISS:          0
cpu0_L2C PREFETCH     ACCESS:    4702737  HIT:    1027312  MISS:    3675425  iACCESS:    2496341  iHIT:     675587  iMISS:    1820754  dACCESS:    2206396  dHIT:     351725  dMISS:    1854671  itACCESS:          0  itHIT:          0  itMISS:          0  dtACCESS:          0  dtHIT:          0  dtMISS:          0
cpu0_L2C WRITE        ACCESS:     275507  HIT:     125273  MISS:     150234  iACCESS:          0  iHIT:          0  iMISS:          0  dACCESS:     275507  dHIT:     125273  dMISS:     150234  itACCESS:          0  itHIT:          0  itMISS:          0  dtACCESS:          0  dtHIT:          0  dtMISS:          0
cpu0_L2C TRANSLATION  ACCESS:     245577  HIT:     126583  MISS:     118994  iACCESS:          0  iHIT:          0  iMISS:          0  dACCESS:          0  dHIT:          0  dMISS:          0  itACCESS:      32483  itHIT:      14522  itMISS:      17961  dtACCESS:     213094  dtHIT:     112061  dtMISS:     101033
cpu0_L2C PREFETCH  REQUESTED:    1445526  ISSUED:    1445526  CROSSED:          0  USEFUL:     402264  USELESS:     413119
cpu0_L2C AVERAGE iMISS LATENCY: 21.7868 cycles
cpu0_L2C AVERAGE dMISS LATENCY: 36.8562 cycles
cpu0_L2C AVERAGE itMISS LATENCY: 0.479222 cycles
cpu0_L2C AVERAGE dtMISS LATENCY: 2.26987 cycles
cpu0_L2C PAGE CROSSINGS (TLB HIT):         0 
cpu0_L2C PAGE CROSSINGS (TLB MISS):         0 
cpu0_L2C AVERAGE MISS LATENCY: 61.392 cycles
LLC TOTAL       ACCESS:    5318688  HIT:    3836981  MISS:    1481707  iACCESS:    2349171  iHIT:    1848650  iMISS:     500521  dACCESS:    2850523  dHIT:    1939505  dMISS:     911018  itACCESS:      17961  itHIT:       4856  itMISS:      13105  dtACCESS:     101033  dtHIT:      43970  dtMISS:      57063
LLC LOAD         ACCESS:    1410422  HIT:    1082793  MISS:     327629  iACCESS:     599339  iHIT:     498435  iMISS:     100904  dACCESS:     811083  dHIT:     584358  dMISS:     226725  itACCESS:          0  itHIT:          0  itMISS:          0  dtACCESS:          0  dtHIT:          0  dtMISS:          0
LLC RFO          ACCESS:     122270  HIT:      66984  MISS:      55286  iACCESS:          0  iHIT:          0  iMISS:          0  dACCESS:     122270  dHIT:      66984  dMISS:      55286  itACCESS:          0  itHIT:          0  itMISS:          0  dtACCESS:          0  dtHIT:          0  dtMISS:          0
LLC PREFETCH     ACCESS:    3514167  HIT:    2496550  MISS:    1017617  iACCESS:    1749832  iHIT:    1350215  iMISS:     399617  dACCESS:    1764335  dHIT:    1146335  dMISS:     618000  itACCESS:          0  itHIT:          0  itMISS:          0  dtACCESS:          0  dtHIT:          0  dtMISS:          0
LLC WRITE        ACCESS:     152835  HIT:     141828  MISS:      11007  iACCESS:          0  iHIT:          0  iMISS:          0  dACCESS:     152835  dHIT:     141828  dMISS:      11007  itACCESS:          0  itHIT:          0  itMISS:          0  dtACCESS:          0  dtHIT:          0  dtMISS:          0
LLC TRANSLATION  ACCESS:     118994  HIT:      48826  MISS:      70168  iACCESS:          0  iHIT:          0  iMISS:          0  dACCESS:          0  dHIT:          0  dMISS:          0  itACCESS:      17961  itHIT:       4856  itMISS:      13105  dtACCESS:     101033  dtHIT:      43970  dtMISS:      57063
LLC PREFETCH  REQUESTED:          0  ISSUED:          0  CROSSED:          0  USEFUL:          0  USELESS:          0
LLC AVERAGE iMISS LATENCY: 49.9349 cycles
LLC AVERAGE dMISS LATENCY: 102.599 cycles
LLC AVERAGE itMISS LATENCY: 1.53459 cycles
LLC AVERAGE dtMISS LATENCY: 7.06597 cycles
LLC PAGE CROSSINGS (TLB HIT):         0 
LLC PAGE CROSSINGS (TLB MISS):         0 
LLC AVERAGE MISS LATENCY: 161.135 cycles

PageTableWalker TOTAL       ACCESS:     103286  
PageTableWalker AVERAGE LATENCY: 4.55015 cycles
PageTableWalker TOTAL LATENCY: 469966 cycles

DRAM Statistics
Channel 0
 RQ ROW_BUFFER_HIT:     415602
  ROW_BUFFER_MISS:    1035250
 AVG DBUS CONGESTED CYCLE:    3.63061
 WQ ROW_BUFFER_HIT:      30170
  ROW_BUFFER_MISS:      25620  FULL:          0

