last_page:0x200000000000000
VMEM_RES_CAP:0x100000
PAGE_SIZE:4096
LOG2_PAGE_SIZE:12
LOG2_PAGE_TABLE_SIZE:9
page_table_levels:5
WARNING: physical memory size is smaller than virtual memory size
FDiP enabled with aggresivity 16

*** ChampSim Multicore Out-of-Order Simulator ***

Warmup Instructions: 50000000
Simulation Instructions: 100000000
Number of CPUs: 1
Small page size: 4096
Large page size: 2097152

CPU 0 Bimodal branch predictor
Basic BTB sets: 1024 ways: 8 indirect buffer size: 4096 RAS size: 64
Instruction page size distrubution: 0
Loading instruction page size distribution from /home/bsc/bsc018186/scratch/itp_asplos25_AE/dump/srv771_ap.pdst
Data page size distrubution: 0
Loading data page size distribution from /home/bsc/bsc018186/scratch/itp_asplos25_AE/dump/srv771_ap.pdst
cpu0_L2C IP-based stride prefetcher
cpu0_L1D next line prefetcher
cpu0_STLB using iTP with max lru@8
cpu0_STLB using iTP with instr@0 and data@2
Init sat counter with 3 bits (max:50).
cpu0_L1I next line prefetcher
Off-chip DRAM Size: 4 GiB Channels: 1 Width: 64-bit Data Rate: 3200 MT/s
Heartbeat CPU 0 instructions: 10000003 cycles: 2500153 heartbeat IPC: 3.99976 cumulative IPC: 3.99976 (Simulation time: 0 hr 0 min 37 sec) 
Heartbeat CPU 0 instructions: 20000001 cycles: 5000190 heartbeat IPC: 3.99995 cumulative IPC: 3.99985 (Simulation time: 0 hr 1 min 16 sec) 
Heartbeat CPU 0 instructions: 30000002 cycles: 7500258 heartbeat IPC: 3.9999 cumulative IPC: 3.99987 (Simulation time: 0 hr 1 min 56 sec) 
Heartbeat CPU 0 instructions: 40000002 cycles: 10000258 heartbeat IPC: 4 cumulative IPC: 3.9999 (Simulation time: 0 hr 2 min 36 sec) 
Heartbeat CPU 0 instructions: 50000003 cycles: 12500326 heartbeat IPC: 3.9999 cumulative IPC: 3.9999 (Simulation time: 0 hr 3 min 17 sec) 
Warmup finished CPU 0 instructions: 50000003 cycles: 12500327 cumulative IPC: 3.9999 (Simulation time: 0 hr 3 min 17 sec) 

Warmup complete CPU 0 instructions: 50000003 cycles: 12500327 (Simulation time: 0 hr 3 min 17 sec) 

Heartbeat CPU 0 instructions: 60000000 cycles: 32160087 heartbeat IPC: 0.508654 cumulative IPC: 0.508654 (Simulation time: 0 hr 4 min 29 sec) 
Heartbeat CPU 0 instructions: 70000004 cycles: 53065763 heartbeat IPC: 0.47834 cumulative IPC: 0.493031 (Simulation time: 0 hr 5 min 43 sec) 
Heartbeat CPU 0 instructions: 80000000 cycles: 72775774 heartbeat IPC: 0.507357 cumulative IPC: 0.497716 (Simulation time: 0 hr 6 min 55 sec) 
Heartbeat CPU 0 instructions: 90000002 cycles: 93062756 heartbeat IPC: 0.492928 cumulative IPC: 0.49651 (Simulation time: 0 hr 8 min 6 sec) 
Heartbeat CPU 0 instructions: 100000002 cycles: 113603647 heartbeat IPC: 0.486834 cumulative IPC: 0.494544 (Simulation time: 0 hr 9 min 18 sec) 
*** Reached end of trace: /gpfs/projects/bsc18/MN4/bsc18/romol/ChampSim/traces/qualcomm_srv/srv771_ap.champsimtrace.xz
Heartbeat CPU 0 instructions: 110000004 cycles: 133669491 heartbeat IPC: 0.49836 cumulative IPC: 0.495176 (Simulation time: 0 hr 10 min 29 sec) 
Heartbeat CPU 0 instructions: 120000000 cycles: 153804890 heartbeat IPC: 0.496638 cumulative IPC: 0.495384 (Simulation time: 0 hr 11 min 40 sec) 
Heartbeat CPU 0 instructions: 130000004 cycles: 173511401 heartbeat IPC: 0.507447 cumulative IPC: 0.496861 (Simulation time: 0 hr 12 min 53 sec) 
Heartbeat CPU 0 instructions: 140000003 cycles: 193449098 heartbeat IPC: 0.501563 cumulative IPC: 0.497379 (Simulation time: 0 hr 14 min 5 sec) 
Heartbeat CPU 0 instructions: 150000002 cycles: 214789712 heartbeat IPC: 0.468591 cumulative IPC: 0.494342 (Simulation time: 0 hr 15 min 19 sec) 
Simulation finished CPU 0 instructions: 100000004 cycles: 202289387 cumulative IPC: 0.494342 (Simulation time: 0 hr 15 min 19 sec) 

Simulation complete CPU 0 instructions: 100000004 cycles: 202289387 (Simulation time: 0 hr 15 min 19 sec) 


ChampSim completed all CPUs

Saving instructions large page distribution to /home/bsc/bsc018186/scratch/itp_asplos25_AE/dump/srv771_ap.pdst...
Saving data large page distribution to /home/bsc/bsc018186/scratch/itp_asplos25_AE/dump/srv771_ap.pdst...
=== Simulation ===
CPU 0 runs /gpfs/projects/bsc18/MN4/bsc18/romol/ChampSim/traces/qualcomm_srv/srv771_ap.champsimtrace.xz

Region of Interest Statistics

CPU 0 cumulative IPC: 0.494342 instructions: 100000004 cycles: 202289387
CPU 0 Branch Prediction Accuracy: 80.1658% MPKI: 35.8759 Average ROB Occupancy at Mispredict: 11.0054
Branch type MPKI
BRANCH_DIRECT_JUMP: 1.33592
BRANCH_INDIRECT: 18.0412
BRANCH_CONDITIONAL: 11.5983
BRANCH_DIRECT_CALL: 2.51543
BRANCH_INDIRECT_CALL: 0.66576
BRANCH_RETURN: 1.7194

Instructions large pages: 0
Instructions small pages: 6153
Large page distribution for instructions: 0%

Data large pages: 0
Data small pages: 5064
Large page distribution for data: 0%

cpu0_L1I TOTAL       ACCESS:   36069983  HIT:   28086762  MISS:    7983221  iACCESS:   36069983  iHIT:   28086762  iMISS:    7983221  dACCESS:          0  dHIT:          0  dMISS:          0  itACCESS:          0  itHIT:          0  itMISS:          0  dtACCESS:          0  dtHIT:          0  dtMISS:          0
cpu0_L1I LOAD         ACCESS:   10551911  HIT:    8354435  MISS:    2197476  iACCESS:   10551911  iHIT:    8354435  iMISS:    2197476  dACCESS:          0  dHIT:          0  dMISS:          0  itACCESS:          0  itHIT:          0  itMISS:          0  dtACCESS:          0  dtHIT:          0  dtMISS:          0
cpu0_L1I RFO          ACCESS:          0  HIT:          0  MISS:          0  iACCESS:          0  iHIT:          0  iMISS:          0  dACCESS:          0  dHIT:          0  dMISS:          0  itACCESS:          0  itHIT:          0  itMISS:          0  dtACCESS:          0  dtHIT:          0  dtMISS:          0
cpu0_L1I PREFETCH     ACCESS:   25518072  HIT:   19732327  MISS:    5785745  iACCESS:   25518072  iHIT:   19732327  iMISS:    5785745  dACCESS:          0  dHIT:          0  dMISS:          0  itACCESS:          0  itHIT:          0  itMISS:          0  dtACCESS:          0  dtHIT:          0  dtMISS:          0
cpu0_L1I WRITE        ACCESS:          0  HIT:          0  MISS:          0  iACCESS:          0  iHIT:          0  iMISS:          0  dACCESS:          0  dHIT:          0  dMISS:          0  itACCESS:          0  itHIT:          0  itMISS:          0  dtACCESS:          0  dtHIT:          0  dtMISS:          0
cpu0_L1I TRANSLATION  ACCESS:          0  HIT:          0  MISS:          0  iACCESS:          0  iHIT:          0  iMISS:          0  dACCESS:          0  dHIT:          0  dMISS:          0  itACCESS:          0  itHIT:          0  itMISS:          0  dtACCESS:          0  dtHIT:          0  dtMISS:          0
cpu0_L1I PREFETCH  REQUESTED:   28081824  ISSUED:   28081824  CROSSED:          0  USEFUL:    2010292  USELESS:     657949
cpu0_L1I AVERAGE iMISS LATENCY: 18.8992 cycles
cpu0_L1I AVERAGE dMISS LATENCY: 0 cycles
cpu0_L1I AVERAGE itMISS LATENCY: 0 cycles
cpu0_L1I AVERAGE dtMISS LATENCY: 0 cycles
cpu0_L1I PAGE CROSSINGS (TLB HIT):         0 
cpu0_L1I PAGE CROSSINGS (TLB MISS):         0 
cpu0_L1I AVERAGE MISS LATENCY: 18.8992 cycles
cpu0_ITLB TOTAL       ACCESS:   30299423  HIT:   28342648  MISS:    1956775  iACCESS:   30299423  iHIT:   28342648  iMISS:    1956775  dACCESS:          0  dHIT:          0  dMISS:          0  itACCESS:          0  itHIT:          0  itMISS:          0  dtACCESS:          0  dtHIT:          0  dtMISS:          0
cpu0_ITLB LOAD         ACCESS:   30299423  HIT:   28342648  MISS:    1956775  iACCESS:   30299423  iHIT:   28342648  iMISS:    1956775  dACCESS:          0  dHIT:          0  dMISS:          0  itACCESS:          0  itHIT:          0  itMISS:          0  dtACCESS:          0  dtHIT:          0  dtMISS:          0
cpu0_ITLB RFO          ACCESS:          0  HIT:          0  MISS:          0  iACCESS:          0  iHIT:          0  iMISS:          0  dACCESS:          0  dHIT:          0  dMISS:          0  itACCESS:          0  itHIT:          0  itMISS:          0  dtACCESS:          0  dtHIT:          0  dtMISS:          0
cpu0_ITLB PREFETCH     ACCESS:          0  HIT:          0  MISS:          0  iACCESS:          0  iHIT:          0  iMISS:          0  dACCESS:          0  dHIT:          0  dMISS:          0  itACCESS:          0  itHIT:          0  itMISS:          0  dtACCESS:          0  dtHIT:          0  dtMISS:          0
cpu0_ITLB WRITE        ACCESS:          0  HIT:          0  MISS:          0  iACCESS:          0  iHIT:          0  iMISS:          0  dACCESS:          0  dHIT:          0  dMISS:          0  itACCESS:          0  itHIT:          0  itMISS:          0  dtACCESS:          0  dtHIT:          0  dtMISS:          0
cpu0_ITLB TRANSLATION  ACCESS:          0  HIT:          0  MISS:          0  iACCESS:          0  iHIT:          0  iMISS:          0  dACCESS:          0  dHIT:          0  dMISS:          0  itACCESS:          0  itHIT:          0  itMISS:          0  dtACCESS:          0  dtHIT:          0  dtMISS:          0
cpu0_ITLB PREFETCH  REQUESTED:          0  ISSUED:          0  CROSSED:          0  USEFUL:     329027  USELESS:      66488
cpu0_ITLB AVERAGE iMISS LATENCY: 4.03368 cycles
cpu0_ITLB AVERAGE dMISS LATENCY: 0 cycles
cpu0_ITLB AVERAGE itMISS LATENCY: 0 cycles
cpu0_ITLB AVERAGE dtMISS LATENCY: 0 cycles
cpu0_ITLB PAGE CROSSINGS (TLB HIT):         0 
cpu0_ITLB PAGE CROSSINGS (TLB MISS):         0 
cpu0_ITLB AVERAGE MISS LATENCY: 4.03368 cycles
cpu0_DTLB TOTAL       ACCESS:   27975746  HIT:   25985679  MISS:    1990067  iACCESS:          0  iHIT:          0  iMISS:          0  dACCESS:   27975746  dHIT:   25985679  dMISS:    1990067  itACCESS:          0  itHIT:          0  itMISS:          0  dtACCESS:          0  dtHIT:          0  dtMISS:          0
cpu0_DTLB LOAD         ACCESS:   27975746  HIT:   25985679  MISS:    1990067  iACCESS:          0  iHIT:          0  iMISS:          0  dACCESS:   27975746  dHIT:   25985679  dMISS:    1990067  itACCESS:          0  itHIT:          0  itMISS:          0  dtACCESS:          0  dtHIT:          0  dtMISS:          0
cpu0_DTLB RFO          ACCESS:          0  HIT:          0  MISS:          0  iACCESS:          0  iHIT:          0  iMISS:          0  dACCESS:          0  dHIT:          0  dMISS:          0  itACCESS:          0  itHIT:          0  itMISS:          0  dtACCESS:          0  dtHIT:          0  dtMISS:          0
cpu0_DTLB PREFETCH     ACCESS:          0  HIT:          0  MISS:          0  iACCESS:          0  iHIT:          0  iMISS:          0  dACCESS:          0  dHIT:          0  dMISS:          0  itACCESS:          0  itHIT:          0  itMISS:          0  dtACCESS:          0  dtHIT:          0  dtMISS:          0
cpu0_DTLB WRITE        ACCESS:          0  HIT:          0  MISS:          0  iACCESS:          0  iHIT:          0  iMISS:          0  dACCESS:          0  dHIT:          0  dMISS:          0  itACCESS:          0  itHIT:          0  itMISS:          0  dtACCESS:          0  dtHIT:          0  dtMISS:          0
cpu0_DTLB TRANSLATION  ACCESS:          0  HIT:          0  MISS:          0  iACCESS:          0  iHIT:          0  iMISS:          0  dACCESS:          0  dHIT:          0  dMISS:          0  itACCESS:          0  itHIT:          0  itMISS:          0  dtACCESS:          0  dtHIT:          0  dtMISS:          0
cpu0_DTLB PREFETCH  REQUESTED:          0  ISSUED:          0  CROSSED:          0  USEFUL:          0  USELESS:          0
cpu0_DTLB AVERAGE iMISS LATENCY: 0 cycles
cpu0_DTLB AVERAGE dMISS LATENCY: 23.1077 cycles
cpu0_DTLB AVERAGE itMISS LATENCY: 0 cycles
cpu0_DTLB AVERAGE dtMISS LATENCY: 0 cycles
cpu0_DTLB PAGE CROSSINGS (TLB HIT):         0 
cpu0_DTLB PAGE CROSSINGS (TLB MISS):         0 
cpu0_DTLB AVERAGE MISS LATENCY: 23.1077 cycles
cpu0_STLB TOTAL       ACCESS:    1618833  HIT:    1409852  MISS:     208981  iACCESS:     395517  iHIT:     366660  iMISS:      28857  dACCESS:    1223316  dHIT:    1043192  dMISS:     180124  itACCESS:          0  itHIT:          0  itMISS:          0  dtACCESS:          0  dtHIT:          0  dtMISS:          0
cpu0_STLB LOAD         ACCESS:    1618833  HIT:    1409852  MISS:     208981  iACCESS:     395517  iHIT:     366660  iMISS:      28857  dACCESS:    1223316  dHIT:    1043192  dMISS:     180124  itACCESS:          0  itHIT:          0  itMISS:          0  dtACCESS:          0  dtHIT:          0  dtMISS:          0
cpu0_STLB RFO          ACCESS:          0  HIT:          0  MISS:          0  iACCESS:          0  iHIT:          0  iMISS:          0  dACCESS:          0  dHIT:          0  dMISS:          0  itACCESS:          0  itHIT:          0  itMISS:          0  dtACCESS:          0  dtHIT:          0  dtMISS:          0
cpu0_STLB PREFETCH     ACCESS:          0  HIT:          0  MISS:          0  iACCESS:          0  iHIT:          0  iMISS:          0  dACCESS:          0  dHIT:          0  dMISS:          0  itACCESS:          0  itHIT:          0  itMISS:          0  dtACCESS:          0  dtHIT:          0  dtMISS:          0
cpu0_STLB WRITE        ACCESS:          0  HIT:          0  MISS:          0  iACCESS:          0  iHIT:          0  iMISS:          0  dACCESS:          0  dHIT:          0  dMISS:          0  itACCESS:          0  itHIT:          0  itMISS:          0  dtACCESS:          0  dtHIT:          0  dtMISS:          0
cpu0_STLB TRANSLATION  ACCESS:          0  HIT:          0  MISS:          0  iACCESS:          0  iHIT:          0  iMISS:          0  dACCESS:          0  dHIT:          0  dMISS:          0  itACCESS:          0  itHIT:          0  itMISS:          0  dtACCESS:          0  dtHIT:          0  dtMISS:          0
cpu0_STLB PREFETCH  REQUESTED:          0  ISSUED:          0  CROSSED:          0  USEFUL:          0  USELESS:          0
cpu0_STLB AVERAGE iMISS LATENCY: 22.9903 cycles
cpu0_STLB AVERAGE dMISS LATENCY: 173.051 cycles
cpu0_STLB AVERAGE itMISS LATENCY: 0 cycles
cpu0_STLB AVERAGE dtMISS LATENCY: 0 cycles
cpu0_STLB PAGE CROSSINGS (TLB HIT):         0 
cpu0_STLB PAGE CROSSINGS (TLB MISS):         0 
cpu0_STLB AVERAGE MISS LATENCY: 196.042 cycles
cpu0_L1D TOTAL       ACCESS:   42854544  HIT:   38501610  MISS:    4352934  iACCESS:          0  iHIT:          0  iMISS:          0  dACCESS:   42568306  dHIT:   38485012  dMISS:    4083294  itACCESS:      32633  itHIT:       2897  itMISS:      29736  dtACCESS:     253605  dtHIT:      13701  dtMISS:     239904
cpu0_L1D LOAD         ACCESS:   19506680  HIT:   17628001  MISS:    1878679  iACCESS:          0  iHIT:          0  iMISS:          0  dACCESS:   19506680  dHIT:   17628001  dMISS:    1878679  itACCESS:          0  itHIT:          0  itMISS:          0  dtACCESS:          0  dtHIT:          0  dtMISS:          0
cpu0_L1D RFO          ACCESS:          0  HIT:          0  MISS:          0  iACCESS:          0  iHIT:          0  iMISS:          0  dACCESS:          0  dHIT:          0  dMISS:          0  itACCESS:          0  itHIT:          0  itMISS:          0  dtACCESS:          0  dtHIT:          0  dtMISS:          0
cpu0_L1D PREFETCH     ACCESS:   12930337  HIT:   11173315  MISS:    1757022  iACCESS:          0  iHIT:          0  iMISS:          0  dACCESS:   12930337  dHIT:   11173315  dMISS:    1757022  itACCESS:          0  itHIT:          0  itMISS:          0  dtACCESS:          0  dtHIT:          0  dtMISS:          0
cpu0_L1D WRITE        ACCESS:   10131289  HIT:    9683696  MISS:     447593  iACCESS:          0  iHIT:          0  iMISS:          0  dACCESS:   10131289  dHIT:    9683696  dMISS:     447593  itACCESS:          0  itHIT:          0  itMISS:          0  dtACCESS:          0  dtHIT:          0  dtMISS:          0
cpu0_L1D TRANSLATION  ACCESS:     286238  HIT:      16598  MISS:     269640  iACCESS:          0  iHIT:          0  iMISS:          0  dACCESS:          0  dHIT:          0  dMISS:          0  itACCESS:      32633  itHIT:       2897  itMISS:      29736  dtACCESS:     253605  dtHIT:      13701  dtMISS:     239904
cpu0_L1D PREFETCH  REQUESTED:   19506680  ISSUED:   17294441  CROSSED:          0  USEFUL:     311424  USELESS:     704167
cpu0_L1D AVERAGE iMISS LATENCY: 0 cycles
cpu0_L1D AVERAGE dMISS LATENCY: 38.3179 cycles
cpu0_L1D AVERAGE itMISS LATENCY: 1.03631 cycles
cpu0_L1D AVERAGE dtMISS LATENCY: 7.73779 cycles
cpu0_L1D PAGE CROSSINGS (TLB HIT):         0 
cpu0_L1D PAGE CROSSINGS (TLB MISS):         0 
cpu0_L1D AVERAGE MISS LATENCY: 47.0919 cycles
cpu0_L2C TOTAL       ACCESS:    7331068  HIT:    3755894  MISS:    3575174  iACCESS:    3412561  iHIT:    2070694  iMISS:    1341867  dACCESS:    3659112  dHIT:    1645556  dMISS:    2013556  itACCESS:      29736  itHIT:       4256  itMISS:      25480  dtACCESS:     229659  dtHIT:      35388  dtMISS:     194271
cpu0_L2C LOAD         ACCESS:    1736482  HIT:     930572  MISS:     805910  iACCESS:     783258  iHIT:     506160  iMISS:     277098  dACCESS:     953224  dHIT:     424412  dMISS:     528812  itACCESS:          0  itHIT:          0  itMISS:          0  dtACCESS:          0  dtHIT:          0  dtMISS:          0
cpu0_L2C RFO          ACCESS:     161279  HIT:      64597  MISS:      96682  iACCESS:          0  iHIT:          0  iMISS:          0  dACCESS:     161279  dHIT:      64597  dMISS:      96682  itACCESS:          0  itHIT:          0  itMISS:          0  dtACCESS:          0  dtHIT:          0  dtMISS:          0
cpu0_L2C PREFETCH     ACCESS:    4899009  HIT:    2447189  MISS:    2451820  iACCESS:    2629303  iHIT:    1564534  iMISS:    1064769  dACCESS:    2269706  dHIT:     882655  dMISS:    1387051  itACCESS:          0  itHIT:          0  itMISS:          0  dtACCESS:          0  dtHIT:          0  dtMISS:          0
cpu0_L2C WRITE        ACCESS:     274903  HIT:     273892  MISS:       1011  iACCESS:          0  iHIT:          0  iMISS:          0  dACCESS:     274903  dHIT:     273892  dMISS:       1011  itACCESS:          0  itHIT:          0  itMISS:          0  dtACCESS:          0  dtHIT:          0  dtMISS:          0
cpu0_L2C TRANSLATION  ACCESS:     259395  HIT:      39644  MISS:     219751  iACCESS:          0  iHIT:          0  iMISS:          0  dACCESS:          0  dHIT:          0  dMISS:          0  itACCESS:      29736  itHIT:       4256  itMISS:      25480  dtACCESS:     229659  dtHIT:      35388  dtMISS:     194271
cpu0_L2C PREFETCH  REQUESTED:    1522291  ISSUED:    1522242  CROSSED:          0  USEFUL:     375772  USELESS:     295263
cpu0_L2C AVERAGE iMISS LATENCY: 33.8634 cycles
cpu0_L2C AVERAGE dMISS LATENCY: 59.5378 cycles
cpu0_L2C AVERAGE itMISS LATENCY: 1.17948 cycles
cpu0_L2C AVERAGE dtMISS LATENCY: 8.78471 cycles
cpu0_L2C PAGE CROSSINGS (TLB HIT):         0 
cpu0_L2C PAGE CROSSINGS (TLB MISS):         0 
cpu0_L2C AVERAGE MISS LATENCY: 103.366 cycles
LLC TOTAL       ACCESS:    3534712  HIT:    1643421  MISS:    1891291  iACCESS:    1262968  iHIT:     612757  iMISS:     650211  dACCESS:    2051993  dHIT:     978341  dMISS:    1073652  itACCESS:      25480  itHIT:       4583  itMISS:      20897  dtACCESS:     194271  dtHIT:      47740  dtMISS:     146531
LLC LOAD         ACCESS:     799446  HIT:     387360  MISS:     412086  iACCESS:     275887  iHIT:     136058  iMISS:     139829  dACCESS:     523559  dHIT:     251302  dMISS:     272257  itACCESS:          0  itHIT:          0  itMISS:          0  dtACCESS:          0  dtHIT:          0  dtMISS:          0
LLC RFO          ACCESS:      96676  HIT:      38323  MISS:      58353  iACCESS:          0  iHIT:          0  iMISS:          0  dACCESS:      96676  dHIT:      38323  dMISS:      58353  itACCESS:          0  itHIT:          0  itMISS:          0  dtACCESS:          0  dtHIT:          0  dtMISS:          0
LLC PREFETCH     ACCESS:    2274089  HIT:    1028734  MISS:    1245355  iACCESS:     987081  iHIT:     476699  iMISS:     510382  dACCESS:    1287008  dHIT:     552035  dMISS:     734973  itACCESS:          0  itHIT:          0  itMISS:          0  dtACCESS:          0  dtHIT:          0  dtMISS:          0
LLC WRITE        ACCESS:     144750  HIT:     136681  MISS:       8069  iACCESS:          0  iHIT:          0  iMISS:          0  dACCESS:     144750  dHIT:     136681  dMISS:       8069  itACCESS:          0  itHIT:          0  itMISS:          0  dtACCESS:          0  dtHIT:          0  dtMISS:          0
LLC TRANSLATION  ACCESS:     219751  HIT:      52323  MISS:     167428  iACCESS:          0  iHIT:          0  iMISS:          0  dACCESS:          0  dHIT:          0  dMISS:          0  itACCESS:      25480  itHIT:       4583  itMISS:      20897  dtACCESS:     194271  dtHIT:      47740  dtMISS:     146531
LLC PREFETCH  REQUESTED:          0  ISSUED:          0  CROSSED:          0  USEFUL:          0  USELESS:          0
LLC AVERAGE iMISS LATENCY: 50.9655 cycles
LLC AVERAGE dMISS LATENCY: 93.9258 cycles
LLC AVERAGE itMISS LATENCY: 1.9636 cycles
LLC AVERAGE dtMISS LATENCY: 14.5852 cycles
LLC PAGE CROSSINGS (TLB HIT):         0 
LLC PAGE CROSSINGS (TLB MISS):         0 
LLC AVERAGE MISS LATENCY: 161.44 cycles

PageTableWalker TOTAL       ACCESS:      98923  
PageTableWalker AVERAGE LATENCY: 5.22103 cycles
PageTableWalker TOTAL LATENCY: 516479 cycles

DRAM Statistics
Channel 0
 RQ ROW_BUFFER_HIT:     512454
  ROW_BUFFER_MISS:    1352392
 AVG DBUS CONGESTED CYCLE:    3.63243
 WQ ROW_BUFFER_HIT:      36177
  ROW_BUFFER_MISS:      25945  FULL:          0

