last_page:0x200000000000000
VMEM_RES_CAP:0x100000
PAGE_SIZE:4096
LOG2_PAGE_SIZE:12
LOG2_PAGE_TABLE_SIZE:9
page_table_levels:5
WARNING: physical memory size is smaller than virtual memory size
FDiP enabled with aggresivity 16

*** ChampSim Multicore Out-of-Order Simulator ***

Warmup Instructions: 50000000
Simulation Instructions: 100000000
Number of CPUs: 1
Small page size: 4096
Large page size: 2097152

CPU 0 Bimodal branch predictor
Basic BTB sets: 1024 ways: 8 indirect buffer size: 4096 RAS size: 64
Instruction page size distrubution: 0
Loading instruction page size distribution from /home/bsc/bsc018186/scratch/itp_asplos25_AE/dump/srv702_ap.pdst
Data page size distrubution: 0
Loading data page size distribution from /home/bsc/bsc018186/scratch/itp_asplos25_AE/dump/srv702_ap.pdst
cpu0_L2C IP-based stride prefetcher
cpu0_L2C is using PTP replacement policy:
	TLB_STRESS_THRESHOLD:0
	PTE_EVICTION_RATIO:0
cpu0_L1D next line prefetcher
CHiRPing...
cpu0_L1I next line prefetcher
Off-chip DRAM Size: 4 GiB Channels: 1 Width: 64-bit Data Rate: 3200 MT/s
Heartbeat CPU 0 instructions: 10000002 cycles: 2500223 heartbeat IPC: 3.99965 cumulative IPC: 3.99965 (Simulation time: 0 hr 0 min 38 sec) 
Heartbeat CPU 0 instructions: 20000000 cycles: 5000264 heartbeat IPC: 3.99994 cumulative IPC: 3.99979 (Simulation time: 0 hr 1 min 18 sec) 
Heartbeat CPU 0 instructions: 30000002 cycles: 7500280 heartbeat IPC: 3.99998 cumulative IPC: 3.99986 (Simulation time: 0 hr 1 min 59 sec) 
Heartbeat CPU 0 instructions: 40000000 cycles: 10000322 heartbeat IPC: 3.99994 cumulative IPC: 3.99988 (Simulation time: 0 hr 2 min 40 sec) 
Heartbeat CPU 0 instructions: 50000003 cycles: 12500338 heartbeat IPC: 3.99998 cumulative IPC: 3.9999 (Simulation time: 0 hr 3 min 21 sec) 
Warmup finished CPU 0 instructions: 50000003 cycles: 12500339 cumulative IPC: 3.9999 (Simulation time: 0 hr 3 min 21 sec) 

Warmup complete CPU 0 instructions: 50000003 cycles: 12500339 (Simulation time: 0 hr 3 min 21 sec) 

Heartbeat CPU 0 instructions: 60000002 cycles: 32207655 heartbeat IPC: 0.507426 cumulative IPC: 0.507426 (Simulation time: 0 hr 4 min 32 sec) 
Heartbeat CPU 0 instructions: 70000004 cycles: 51494914 heartbeat IPC: 0.518478 cumulative IPC: 0.512892 (Simulation time: 0 hr 5 min 43 sec) 
Heartbeat CPU 0 instructions: 80000001 cycles: 70960529 heartbeat IPC: 0.513727 cumulative IPC: 0.51317 (Simulation time: 0 hr 6 min 54 sec) 
Heartbeat CPU 0 instructions: 90000000 cycles: 92033502 heartbeat IPC: 0.474542 cumulative IPC: 0.502935 (Simulation time: 0 hr 8 min 7 sec) 
Heartbeat CPU 0 instructions: 100000000 cycles: 111808849 heartbeat IPC: 0.505681 cumulative IPC: 0.503482 (Simulation time: 0 hr 9 min 18 sec) 
*** Reached end of trace: /gpfs/projects/bsc18/MN4/bsc18/romol/ChampSim/traces/qualcomm_srv/srv702_ap.champsimtrace.xz
Heartbeat CPU 0 instructions: 110000002 cycles: 132166836 heartbeat IPC: 0.491208 cumulative IPC: 0.501394 (Simulation time: 0 hr 10 min 30 sec) 
Heartbeat CPU 0 instructions: 120000002 cycles: 152375889 heartbeat IPC: 0.494828 cumulative IPC: 0.500445 (Simulation time: 0 hr 11 min 42 sec) 
Heartbeat CPU 0 instructions: 130000003 cycles: 173256428 heartbeat IPC: 0.478915 cumulative IPC: 0.497649 (Simulation time: 0 hr 12 min 54 sec) 
Heartbeat CPU 0 instructions: 140000001 cycles: 195527930 heartbeat IPC: 0.449005 cumulative IPC: 0.49173 (Simulation time: 0 hr 14 min 9 sec) 
Heartbeat CPU 0 instructions: 150000001 cycles: 215700689 heartbeat IPC: 0.495719 cumulative IPC: 0.492126 (Simulation time: 0 hr 15 min 21 sec) 
Simulation finished CPU 0 instructions: 100000000 cycles: 203200357 cumulative IPC: 0.492126 (Simulation time: 0 hr 15 min 21 sec) 

Simulation complete CPU 0 instructions: 100000000 cycles: 203200357 (Simulation time: 0 hr 15 min 21 sec) 


ChampSim completed all CPUs

Saving instructions large page distribution to /home/bsc/bsc018186/scratch/itp_asplos25_AE/dump/srv702_ap.pdst...
Saving data large page distribution to /home/bsc/bsc018186/scratch/itp_asplos25_AE/dump/srv702_ap.pdst...
=== Simulation ===
CPU 0 runs /gpfs/projects/bsc18/MN4/bsc18/romol/ChampSim/traces/qualcomm_srv/srv702_ap.champsimtrace.xz

Region of Interest Statistics

CPU 0 cumulative IPC: 0.492126 instructions: 100000000 cycles: 203200357
CPU 0 Branch Prediction Accuracy: 79.7342% MPKI: 36.6083 Average ROB Occupancy at Mispredict: 10.2765
Branch type MPKI
BRANCH_DIRECT_JUMP: 1.3734
BRANCH_INDIRECT: 18.4177
BRANCH_CONDITIONAL: 11.8353
BRANCH_DIRECT_CALL: 2.56442
BRANCH_INDIRECT_CALL: 0.659331
BRANCH_RETURN: 1.75824

Instructions large pages: 0
Instructions small pages: 6206
Large page distribution for instructions: 0%

Data large pages: 0
Data small pages: 5147
Large page distribution for data: 0%

cpu0_L1I TOTAL       ACCESS:   36327668  HIT:   28029205  MISS:    8298463  iACCESS:   36327668  iHIT:   28029205  iMISS:    8298463  dACCESS:          0  dHIT:          0  dMISS:          0  itACCESS:          0  itHIT:          0  itMISS:          0  dtACCESS:          0  dtHIT:          0  dtMISS:          0
cpu0_L1I LOAD         ACCESS:   10616041  HIT:    8336164  MISS:    2279877  iACCESS:   10616041  iHIT:    8336164  iMISS:    2279877  dACCESS:          0  dHIT:          0  dMISS:          0  itACCESS:          0  itHIT:          0  itMISS:          0  dtACCESS:          0  dtHIT:          0  dtMISS:          0
cpu0_L1I RFO          ACCESS:          0  HIT:          0  MISS:          0  iACCESS:          0  iHIT:          0  iMISS:          0  dACCESS:          0  dHIT:          0  dMISS:          0  itACCESS:          0  itHIT:          0  itMISS:          0  dtACCESS:          0  dtHIT:          0  dtMISS:          0
cpu0_L1I PREFETCH     ACCESS:   25711627  HIT:   19693041  MISS:    6018586  iACCESS:   25711627  iHIT:   19693041  iMISS:    6018586  dACCESS:          0  dHIT:          0  dMISS:          0  itACCESS:          0  itHIT:          0  itMISS:          0  dtACCESS:          0  dtHIT:          0  dtMISS:          0
cpu0_L1I WRITE        ACCESS:          0  HIT:          0  MISS:          0  iACCESS:          0  iHIT:          0  iMISS:          0  dACCESS:          0  dHIT:          0  dMISS:          0  itACCESS:          0  itHIT:          0  itMISS:          0  dtACCESS:          0  dtHIT:          0  dtMISS:          0
cpu0_L1I TRANSLATION  ACCESS:          0  HIT:          0  MISS:          0  iACCESS:          0  iHIT:          0  iMISS:          0  dACCESS:          0  dHIT:          0  dMISS:          0  itACCESS:          0  itHIT:          0  itMISS:          0  dtACCESS:          0  dtHIT:          0  dtMISS:          0
cpu0_L1I PREFETCH  REQUESTED:   28193997  ISSUED:   28193944  CROSSED:          0  USEFUL:    2052932  USELESS:     669206
cpu0_L1I AVERAGE iMISS LATENCY: 19.3474 cycles
cpu0_L1I AVERAGE dMISS LATENCY: 0 cycles
cpu0_L1I AVERAGE itMISS LATENCY: 0 cycles
cpu0_L1I AVERAGE dtMISS LATENCY: 0 cycles
cpu0_L1I PAGE CROSSINGS (TLB HIT):         0 
cpu0_L1I PAGE CROSSINGS (TLB MISS):         0 
cpu0_L1I AVERAGE MISS LATENCY: 19.3474 cycles
cpu0_ITLB TOTAL       ACCESS:   30479933  HIT:   28509406  MISS:    1970527  iACCESS:   30479933  iHIT:   28509406  iMISS:    1970527  dACCESS:          0  dHIT:          0  dMISS:          0  itACCESS:          0  itHIT:          0  itMISS:          0  dtACCESS:          0  dtHIT:          0  dtMISS:          0
cpu0_ITLB LOAD         ACCESS:   30479933  HIT:   28509406  MISS:    1970527  iACCESS:   30479933  iHIT:   28509406  iMISS:    1970527  dACCESS:          0  dHIT:          0  dMISS:          0  itACCESS:          0  itHIT:          0  itMISS:          0  dtACCESS:          0  dtHIT:          0  dtMISS:          0
cpu0_ITLB RFO          ACCESS:          0  HIT:          0  MISS:          0  iACCESS:          0  iHIT:          0  iMISS:          0  dACCESS:          0  dHIT:          0  dMISS:          0  itACCESS:          0  itHIT:          0  itMISS:          0  dtACCESS:          0  dtHIT:          0  dtMISS:          0
cpu0_ITLB PREFETCH     ACCESS:          0  HIT:          0  MISS:          0  iACCESS:          0  iHIT:          0  iMISS:          0  dACCESS:          0  dHIT:          0  dMISS:          0  itACCESS:          0  itHIT:          0  itMISS:          0  dtACCESS:          0  dtHIT:          0  dtMISS:          0
cpu0_ITLB WRITE        ACCESS:          0  HIT:          0  MISS:          0  iACCESS:          0  iHIT:          0  iMISS:          0  dACCESS:          0  dHIT:          0  dMISS:          0  itACCESS:          0  itHIT:          0  itMISS:          0  dtACCESS:          0  dtHIT:          0  dtMISS:          0
cpu0_ITLB TRANSLATION  ACCESS:          0  HIT:          0  MISS:          0  iACCESS:          0  iHIT:          0  iMISS:          0  dACCESS:          0  dHIT:          0  dMISS:          0  itACCESS:          0  itHIT:          0  itMISS:          0  dtACCESS:          0  dtHIT:          0  dtMISS:          0
cpu0_ITLB PREFETCH  REQUESTED:          0  ISSUED:          0  CROSSED:          0  USEFUL:     334347  USELESS:      66674
cpu0_ITLB AVERAGE iMISS LATENCY: 6.22559 cycles
cpu0_ITLB AVERAGE dMISS LATENCY: 0 cycles
cpu0_ITLB AVERAGE itMISS LATENCY: 0 cycles
cpu0_ITLB AVERAGE dtMISS LATENCY: 0 cycles
cpu0_ITLB PAGE CROSSINGS (TLB HIT):         0 
cpu0_ITLB PAGE CROSSINGS (TLB MISS):         0 
cpu0_ITLB AVERAGE MISS LATENCY: 6.22559 cycles
cpu0_DTLB TOTAL       ACCESS:   28009247  HIT:   26053727  MISS:    1955520  iACCESS:          0  iHIT:          0  iMISS:          0  dACCESS:   28009247  dHIT:   26053727  dMISS:    1955520  itACCESS:          0  itHIT:          0  itMISS:          0  dtACCESS:          0  dtHIT:          0  dtMISS:          0
cpu0_DTLB LOAD         ACCESS:   28009247  HIT:   26053727  MISS:    1955520  iACCESS:          0  iHIT:          0  iMISS:          0  dACCESS:   28009247  dHIT:   26053727  dMISS:    1955520  itACCESS:          0  itHIT:          0  itMISS:          0  dtACCESS:          0  dtHIT:          0  dtMISS:          0
cpu0_DTLB RFO          ACCESS:          0  HIT:          0  MISS:          0  iACCESS:          0  iHIT:          0  iMISS:          0  dACCESS:          0  dHIT:          0  dMISS:          0  itACCESS:          0  itHIT:          0  itMISS:          0  dtACCESS:          0  dtHIT:          0  dtMISS:          0
cpu0_DTLB PREFETCH     ACCESS:          0  HIT:          0  MISS:          0  iACCESS:          0  iHIT:          0  iMISS:          0  dACCESS:          0  dHIT:          0  dMISS:          0  itACCESS:          0  itHIT:          0  itMISS:          0  dtACCESS:          0  dtHIT:          0  dtMISS:          0
cpu0_DTLB WRITE        ACCESS:          0  HIT:          0  MISS:          0  iACCESS:          0  iHIT:          0  iMISS:          0  dACCESS:          0  dHIT:          0  dMISS:          0  itACCESS:          0  itHIT:          0  itMISS:          0  dtACCESS:          0  dtHIT:          0  dtMISS:          0
cpu0_DTLB TRANSLATION  ACCESS:          0  HIT:          0  MISS:          0  iACCESS:          0  iHIT:          0  iMISS:          0  dACCESS:          0  dHIT:          0  dMISS:          0  itACCESS:          0  itHIT:          0  itMISS:          0  dtACCESS:          0  dtHIT:          0  dtMISS:          0
cpu0_DTLB PREFETCH  REQUESTED:          0  ISSUED:          0  CROSSED:          0  USEFUL:          0  USELESS:          0
cpu0_DTLB AVERAGE iMISS LATENCY: 0 cycles
cpu0_DTLB AVERAGE dMISS LATENCY: 16.9724 cycles
cpu0_DTLB AVERAGE itMISS LATENCY: 0 cycles
cpu0_DTLB AVERAGE dtMISS LATENCY: 0 cycles
cpu0_DTLB PAGE CROSSINGS (TLB HIT):         0 
cpu0_DTLB PAGE CROSSINGS (TLB MISS):         0 
cpu0_DTLB AVERAGE MISS LATENCY: 16.9724 cycles
cpu0_STLB TOTAL       ACCESS:    1625345  HIT:    1393582  MISS:     231763  iACCESS:     401019  iHIT:     312898  iMISS:      88121  dACCESS:    1224326  dHIT:    1080684  dMISS:     143642  itACCESS:          0  itHIT:          0  itMISS:          0  dtACCESS:          0  dtHIT:          0  dtMISS:          0
cpu0_STLB LOAD         ACCESS:    1625345  HIT:    1393582  MISS:     231763  iACCESS:     401019  iHIT:     312898  iMISS:      88121  dACCESS:    1224326  dHIT:    1080684  dMISS:     143642  itACCESS:          0  itHIT:          0  itMISS:          0  dtACCESS:          0  dtHIT:          0  dtMISS:          0
cpu0_STLB RFO          ACCESS:          0  HIT:          0  MISS:          0  iACCESS:          0  iHIT:          0  iMISS:          0  dACCESS:          0  dHIT:          0  dMISS:          0  itACCESS:          0  itHIT:          0  itMISS:          0  dtACCESS:          0  dtHIT:          0  dtMISS:          0
cpu0_STLB PREFETCH     ACCESS:          0  HIT:          0  MISS:          0  iACCESS:          0  iHIT:          0  iMISS:          0  dACCESS:          0  dHIT:          0  dMISS:          0  itACCESS:          0  itHIT:          0  itMISS:          0  dtACCESS:          0  dtHIT:          0  dtMISS:          0
cpu0_STLB WRITE        ACCESS:          0  HIT:          0  MISS:          0  iACCESS:          0  iHIT:          0  iMISS:          0  dACCESS:          0  dHIT:          0  dMISS:          0  itACCESS:          0  itHIT:          0  itMISS:          0  dtACCESS:          0  dtHIT:          0  dtMISS:          0
cpu0_STLB TRANSLATION  ACCESS:          0  HIT:          0  MISS:          0  iACCESS:          0  iHIT:          0  iMISS:          0  dACCESS:          0  dHIT:          0  dMISS:          0  itACCESS:          0  itHIT:          0  itMISS:          0  dtACCESS:          0  dtHIT:          0  dtMISS:          0
cpu0_STLB PREFETCH  REQUESTED:          0  ISSUED:          0  CROSSED:          0  USEFUL:          0  USELESS:          0
cpu0_STLB AVERAGE iMISS LATENCY: 39.1438 cycles
cpu0_STLB AVERAGE dMISS LATENCY: 101.021 cycles
cpu0_STLB AVERAGE itMISS LATENCY: 0 cycles
cpu0_STLB AVERAGE dtMISS LATENCY: 0 cycles
cpu0_STLB PAGE CROSSINGS (TLB HIT):         0 
cpu0_STLB PAGE CROSSINGS (TLB MISS):         0 
cpu0_STLB AVERAGE MISS LATENCY: 140.165 cycles
cpu0_L1D TOTAL       ACCESS:   42840171  HIT:   38607619  MISS:    4232552  iACCESS:          0  iHIT:          0  iMISS:          0  dACCESS:   42546208  dHIT:   38583360  dMISS:    3962848  itACCESS:      94015  itHIT:      12914  itMISS:      81101  dtACCESS:     199948  dtHIT:      11345  dtMISS:     188603
cpu0_L1D LOAD         ACCESS:   19460320  HIT:   17648562  MISS:    1811758  iACCESS:          0  iHIT:          0  iMISS:          0  dACCESS:   19460320  dHIT:   17648562  dMISS:    1811758  itACCESS:          0  itHIT:          0  itMISS:          0  dtACCESS:          0  dtHIT:          0  dtMISS:          0
cpu0_L1D RFO          ACCESS:          0  HIT:          0  MISS:          0  iACCESS:          0  iHIT:          0  iMISS:          0  dACCESS:          0  dHIT:          0  dMISS:          0  itACCESS:          0  itHIT:          0  itMISS:          0  dtACCESS:          0  dtHIT:          0  dtMISS:          0
cpu0_L1D PREFETCH     ACCESS:   12953277  HIT:   11241542  MISS:    1711735  iACCESS:          0  iHIT:          0  iMISS:          0  dACCESS:   12953277  dHIT:   11241542  dMISS:    1711735  itACCESS:          0  itHIT:          0  itMISS:          0  dtACCESS:          0  dtHIT:          0  dtMISS:          0
cpu0_L1D WRITE        ACCESS:   10132611  HIT:    9693256  MISS:     439355  iACCESS:          0  iHIT:          0  iMISS:          0  dACCESS:   10132611  dHIT:    9693256  dMISS:     439355  itACCESS:          0  itHIT:          0  itMISS:          0  dtACCESS:          0  dtHIT:          0  dtMISS:          0
cpu0_L1D TRANSLATION  ACCESS:     293963  HIT:      24259  MISS:     269704  iACCESS:          0  iHIT:          0  iMISS:          0  dACCESS:          0  dHIT:          0  dMISS:          0  itACCESS:      94015  itHIT:      12914  itMISS:      81101  dtACCESS:     199948  dtHIT:      11345  dtMISS:     188603
cpu0_L1D PREFETCH  REQUESTED:   19460320  ISSUED:   17357629  CROSSED:          0  USEFUL:     315782  USELESS:     715848
cpu0_L1D AVERAGE iMISS LATENCY: 0 cycles
cpu0_L1D AVERAGE dMISS LATENCY: 41.2408 cycles
cpu0_L1D AVERAGE itMISS LATENCY: 1.96556 cycles
cpu0_L1D AVERAGE dtMISS LATENCY: 5.0551 cycles
cpu0_L1D PAGE CROSSINGS (TLB HIT):         0 
cpu0_L1D PAGE CROSSINGS (TLB MISS):         0 
cpu0_L1D AVERAGE MISS LATENCY: 48.2615 cycles
cpu0_L2C TOTAL       ACCESS:    7449690  HIT:    2697062  MISS:    4752628  iACCESS:    3468896  iHIT:    1498530  iMISS:    1970366  dACCESS:    3718681  dHIT:    1104552  dMISS:    2614129  itACCESS:      81101  itHIT:      31615  itMISS:      49486  dtACCESS:     181012  dtHIT:      62365  dtMISS:     118647
cpu0_L2C LOAD         ACCESS:    1747627  HIT:     584818  MISS:    1162809  iACCESS:     785096  iHIT:     329286  iMISS:     455810  dACCESS:     962531  dHIT:     255532  dMISS:     706999  itACCESS:          0  itHIT:          0  itMISS:          0  dtACCESS:          0  dtHIT:          0  dtMISS:          0
cpu0_L2C RFO          ACCESS:     159139  HIT:      38462  MISS:     120677  iACCESS:          0  iHIT:          0  iMISS:          0  dACCESS:     159139  dHIT:      38462  dMISS:     120677  itACCESS:          0  itHIT:          0  itMISS:          0  dtACCESS:          0  dtHIT:          0  dtMISS:          0
cpu0_L2C PREFETCH     ACCESS:    5003504  HIT:    1800667  MISS:    3202837  iACCESS:    2683800  iHIT:    1169244  iMISS:    1514556  dACCESS:    2319704  dHIT:     631423  dMISS:    1688281  itACCESS:          0  itHIT:          0  itMISS:          0  dtACCESS:          0  dtHIT:          0  dtMISS:          0
cpu0_L2C WRITE        ACCESS:     277307  HIT:     179135  MISS:      98172  iACCESS:          0  iHIT:          0  iMISS:          0  dACCESS:     277307  dHIT:     179135  dMISS:      98172  itACCESS:          0  itHIT:          0  itMISS:          0  dtACCESS:          0  dtHIT:          0  dtMISS:          0
cpu0_L2C TRANSLATION  ACCESS:     262113  HIT:      93980  MISS:     168133  iACCESS:          0  iHIT:          0  iMISS:          0  dACCESS:          0  dHIT:          0  dMISS:          0  itACCESS:      81101  itHIT:      31615  itMISS:      49486  dtACCESS:     181012  dtHIT:      62365  dtMISS:     118647
cpu0_L2C PREFETCH  REQUESTED:    1562084  ISSUED:    1561958  CROSSED:          0  USEFUL:     413270  USELESS:     371750
cpu0_L2C AVERAGE iMISS LATENCY: 27.3411 cycles
cpu0_L2C AVERAGE dMISS LATENCY: 47.0366 cycles
cpu0_L2C AVERAGE itMISS LATENCY: 1.586 cycles
cpu0_L2C AVERAGE dtMISS LATENCY: 4.13242 cycles
cpu0_L2C PAGE CROSSINGS (TLB HIT):         0 
cpu0_L2C PAGE CROSSINGS (TLB MISS):         0 
cpu0_L2C AVERAGE MISS LATENCY: 80.0961 cycles
LLC TOTAL       ACCESS:    4657579  HIT:    2815019  MISS:    1842560  iACCESS:    1886866  iHIT:    1252848  iMISS:     634018  dACCESS:    2602580  dHIT:    1523869  dMISS:    1078711  itACCESS:      49486  itHIT:      11972  itMISS:      37514  dtACCESS:     118647  dtHIT:      26330  dtMISS:      92317
LLC LOAD         ACCESS:    1156796  HIT:     746707  MISS:     410089  iACCESS:     454537  iHIT:     320636  iMISS:     133901  dACCESS:     702259  dHIT:     426071  dMISS:     276188  itACCESS:          0  itHIT:          0  itMISS:          0  dtACCESS:          0  dtHIT:          0  dtMISS:          0
LLC RFO          ACCESS:     120670  HIT:      61432  MISS:      59238  iACCESS:          0  iHIT:          0  iMISS:          0  dACCESS:     120670  dHIT:      61432  dMISS:      59238  itACCESS:          0  itHIT:          0  itMISS:          0  dtACCESS:          0  dtHIT:          0  dtMISS:          0
LLC PREFETCH     ACCESS:    3016221  HIT:    1777660  MISS:    1238561  iACCESS:    1432329  iHIT:     932212  iMISS:     500117  dACCESS:    1583892  dHIT:     845448  dMISS:     738444  itACCESS:          0  itHIT:          0  itMISS:          0  dtACCESS:          0  dtHIT:          0  dtMISS:          0
LLC WRITE        ACCESS:     195759  HIT:     190918  MISS:       4841  iACCESS:          0  iHIT:          0  iMISS:          0  dACCESS:     195759  dHIT:     190918  dMISS:       4841  itACCESS:          0  itHIT:          0  itMISS:          0  dtACCESS:          0  dtHIT:          0  dtMISS:          0
LLC TRANSLATION  ACCESS:     168133  HIT:      38302  MISS:     129831  iACCESS:          0  iHIT:          0  iMISS:          0  dACCESS:          0  dHIT:          0  dMISS:          0  itACCESS:      49486  itHIT:      11972  itMISS:      37514  dtACCESS:     118647  dtHIT:      26330  dtMISS:      92317
LLC PREFETCH  REQUESTED:          0  ISSUED:          0  CROSSED:          0  USEFUL:          0  USELESS:          0
LLC AVERAGE iMISS LATENCY: 50.6315 cycles
LLC AVERAGE dMISS LATENCY: 96.7762 cycles
LLC AVERAGE itMISS LATENCY: 3.56185 cycles
LLC AVERAGE dtMISS LATENCY: 9.39133 cycles
LLC PAGE CROSSINGS (TLB HIT):         0 
LLC PAGE CROSSINGS (TLB MISS):         0 
LLC AVERAGE MISS LATENCY: 160.361 cycles

PageTableWalker TOTAL       ACCESS:     117077  
PageTableWalker AVERAGE LATENCY: 3.90929 cycles
PageTableWalker TOTAL LATENCY: 457687 cycles

DRAM Statistics
Channel 0
 RQ ROW_BUFFER_HIT:     507790
  ROW_BUFFER_MISS:    1313380
 AVG DBUS CONGESTED CYCLE:    3.63971
 WQ ROW_BUFFER_HIT:      40344
  ROW_BUFFER_MISS:      32387  FULL:          0

