last_page:0x200000000000000
VMEM_RES_CAP:0x100000
PAGE_SIZE:4096
LOG2_PAGE_SIZE:12
LOG2_PAGE_TABLE_SIZE:9
page_table_levels:5
WARNING: physical memory size is smaller than virtual memory size
FDiP enabled with aggresivity 16

*** ChampSim Multicore Out-of-Order Simulator ***

Warmup Instructions: 50000000
Simulation Instructions: 100000000
Number of CPUs: 1
Small page size: 4096
Large page size: 2097152

CPU 0 Bimodal branch predictor
Basic BTB sets: 1024 ways: 8 indirect buffer size: 4096 RAS size: 64
Instruction page size distrubution: 0
Loading instruction page size distribution from /home/bsc/bsc018186/scratch/itp_asplos25_AE/dump/srv760_ap.pdst
Data page size distrubution: 0
Loading data page size distribution from /home/bsc/bsc018186/scratch/itp_asplos25_AE/dump/srv760_ap.pdst
cpu0_L2C IP-based stride prefetcher
cpu0_L1D next line prefetcher
cpu0_STLB using iTP with max lru@8
cpu0_STLB using iTP with instr@0 and data@2
Init sat counter with 3 bits (max:50).
cpu0_L1I next line prefetcher
Off-chip DRAM Size: 4 GiB Channels: 1 Width: 64-bit Data Rate: 3200 MT/s
Heartbeat CPU 0 instructions: 10000000 cycles: 2500367 heartbeat IPC: 3.99942 cumulative IPC: 3.99942 (Simulation time: 0 hr 0 min 37 sec) 
Heartbeat CPU 0 instructions: 20000003 cycles: 5000369 heartbeat IPC: 4 cumulative IPC: 3.99971 (Simulation time: 0 hr 1 min 16 sec) 
Heartbeat CPU 0 instructions: 30000003 cycles: 7500567 heartbeat IPC: 3.99969 cumulative IPC: 3.9997 (Simulation time: 0 hr 1 min 55 sec) 
Heartbeat CPU 0 instructions: 40000003 cycles: 10000581 heartbeat IPC: 3.99998 cumulative IPC: 3.99977 (Simulation time: 0 hr 2 min 35 sec) 
Heartbeat CPU 0 instructions: 50000000 cycles: 12500926 heartbeat IPC: 3.99945 cumulative IPC: 3.99971 (Simulation time: 0 hr 3 min 15 sec) 
Warmup finished CPU 0 instructions: 50000000 cycles: 12500927 cumulative IPC: 3.99971 (Simulation time: 0 hr 3 min 15 sec) 

Warmup complete CPU 0 instructions: 50000000 cycles: 12500927 (Simulation time: 0 hr 3 min 15 sec) 

Heartbeat CPU 0 instructions: 60000004 cycles: 28033738 heartbeat IPC: 0.643799 cumulative IPC: 0.643799 (Simulation time: 0 hr 4 min 19 sec) 
Heartbeat CPU 0 instructions: 70000001 cycles: 43971733 heartbeat IPC: 0.627432 cumulative IPC: 0.63551 (Simulation time: 0 hr 5 min 25 sec) 
Heartbeat CPU 0 instructions: 80000000 cycles: 59685191 heartbeat IPC: 0.636398 cumulative IPC: 0.635806 (Simulation time: 0 hr 6 min 29 sec) 
Heartbeat CPU 0 instructions: 90000004 cycles: 74853371 heartbeat IPC: 0.659276 cumulative IPC: 0.641515 (Simulation time: 0 hr 7 min 33 sec) 
Heartbeat CPU 0 instructions: 100000001 cycles: 90640547 heartbeat IPC: 0.633426 cumulative IPC: 0.639881 (Simulation time: 0 hr 8 min 38 sec) 
*** Reached end of trace: /gpfs/projects/bsc18/MN4/bsc18/romol/ChampSim/traces/qualcomm_srv/srv760_ap.champsimtrace.xz
Heartbeat CPU 0 instructions: 110000003 cycles: 106015050 heartbeat IPC: 0.650428 cumulative IPC: 0.641615 (Simulation time: 0 hr 9 min 42 sec) 
Heartbeat CPU 0 instructions: 120000000 cycles: 120130760 heartbeat IPC: 0.708431 cumulative IPC: 0.650378 (Simulation time: 0 hr 10 min 44 sec) 
Heartbeat CPU 0 instructions: 130000002 cycles: 135233192 heartbeat IPC: 0.662146 cumulative IPC: 0.651826 (Simulation time: 0 hr 11 min 48 sec) 
Heartbeat CPU 0 instructions: 140000002 cycles: 149383890 heartbeat IPC: 0.706679 cumulative IPC: 0.657497 (Simulation time: 0 hr 12 min 51 sec) 
Heartbeat CPU 0 instructions: 150000001 cycles: 164998078 heartbeat IPC: 0.640444 cumulative IPC: 0.65575 (Simulation time: 0 hr 13 min 55 sec) 
Simulation finished CPU 0 instructions: 100000001 cycles: 152497152 cumulative IPC: 0.65575 (Simulation time: 0 hr 13 min 55 sec) 

Simulation complete CPU 0 instructions: 100000001 cycles: 152497152 (Simulation time: 0 hr 13 min 55 sec) 


ChampSim completed all CPUs

Saving instructions large page distribution to /home/bsc/bsc018186/scratch/itp_asplos25_AE/dump/srv760_ap.pdst...
Saving data large page distribution to /home/bsc/bsc018186/scratch/itp_asplos25_AE/dump/srv760_ap.pdst...
=== Simulation ===
CPU 0 runs /gpfs/projects/bsc18/MN4/bsc18/romol/ChampSim/traces/qualcomm_srv/srv760_ap.champsimtrace.xz

Region of Interest Statistics

CPU 0 cumulative IPC: 0.65575 instructions: 100000001 cycles: 152497152
CPU 0 Branch Prediction Accuracy: 83.3871% MPKI: 29.7046 Average ROB Occupancy at Mispredict: 12.7981
Branch type MPKI
BRANCH_DIRECT_JUMP: 1.02208
BRANCH_INDIRECT: 15.2815
BRANCH_CONDITIONAL: 9.72535
BRANCH_DIRECT_CALL: 1.83908
BRANCH_INDIRECT_CALL: 0.5038
BRANCH_RETURN: 1.33272

Instructions large pages: 0
Instructions small pages: 11499
Large page distribution for instructions: 0%

Data large pages: 0
Data small pages: 10439
Large page distribution for data: 0%

cpu0_L1I TOTAL       ACCESS:   34665420  HIT:   26915099  MISS:    7750321  iACCESS:   34665420  iHIT:   26915099  iMISS:    7750321  dACCESS:          0  dHIT:          0  dMISS:          0  itACCESS:          0  itHIT:          0  itMISS:          0  dtACCESS:          0  dtHIT:          0  dtMISS:          0
cpu0_L1I LOAD         ACCESS:   10186156  HIT:    8002016  MISS:    2184140  iACCESS:   10186156  iHIT:    8002016  iMISS:    2184140  dACCESS:          0  dHIT:          0  dMISS:          0  itACCESS:          0  itHIT:          0  itMISS:          0  dtACCESS:          0  dtHIT:          0  dtMISS:          0
cpu0_L1I RFO          ACCESS:          0  HIT:          0  MISS:          0  iACCESS:          0  iHIT:          0  iMISS:          0  dACCESS:          0  dHIT:          0  dMISS:          0  itACCESS:          0  itHIT:          0  itMISS:          0  dtACCESS:          0  dtHIT:          0  dtMISS:          0
cpu0_L1I PREFETCH     ACCESS:   24479264  HIT:   18913083  MISS:    5566181  iACCESS:   24479264  iHIT:   18913083  iMISS:    5566181  dACCESS:          0  dHIT:          0  dMISS:          0  itACCESS:          0  itHIT:          0  itMISS:          0  dtACCESS:          0  dtHIT:          0  dtMISS:          0
cpu0_L1I WRITE        ACCESS:          0  HIT:          0  MISS:          0  iACCESS:          0  iHIT:          0  iMISS:          0  dACCESS:          0  dHIT:          0  dMISS:          0  itACCESS:          0  itHIT:          0  itMISS:          0  dtACCESS:          0  dtHIT:          0  dtMISS:          0
cpu0_L1I TRANSLATION  ACCESS:          0  HIT:          0  MISS:          0  iACCESS:          0  iHIT:          0  iMISS:          0  dACCESS:          0  dHIT:          0  dMISS:          0  itACCESS:          0  itHIT:          0  itMISS:          0  dtACCESS:          0  dtHIT:          0  dtMISS:          0
cpu0_L1I PREFETCH  REQUESTED:   27059427  ISSUED:   27059427  CROSSED:          0  USEFUL:    1879843  USELESS:     624025
cpu0_L1I AVERAGE iMISS LATENCY: 13.636 cycles
cpu0_L1I AVERAGE dMISS LATENCY: 0 cycles
cpu0_L1I AVERAGE itMISS LATENCY: 0 cycles
cpu0_L1I AVERAGE dtMISS LATENCY: 0 cycles
cpu0_L1I PAGE CROSSINGS (TLB HIT):         0 
cpu0_L1I PAGE CROSSINGS (TLB MISS):         0 
cpu0_L1I AVERAGE MISS LATENCY: 13.636 cycles
cpu0_ITLB TOTAL       ACCESS:   28958749  HIT:   26991342  MISS:    1967407  iACCESS:   28958749  iHIT:   26991342  iMISS:    1967407  dACCESS:          0  dHIT:          0  dMISS:          0  itACCESS:          0  itHIT:          0  itMISS:          0  dtACCESS:          0  dtHIT:          0  dtMISS:          0
cpu0_ITLB LOAD         ACCESS:   28958749  HIT:   26991342  MISS:    1967407  iACCESS:   28958749  iHIT:   26991342  iMISS:    1967407  dACCESS:          0  dHIT:          0  dMISS:          0  itACCESS:          0  itHIT:          0  itMISS:          0  dtACCESS:          0  dtHIT:          0  dtMISS:          0
cpu0_ITLB RFO          ACCESS:          0  HIT:          0  MISS:          0  iACCESS:          0  iHIT:          0  iMISS:          0  dACCESS:          0  dHIT:          0  dMISS:          0  itACCESS:          0  itHIT:          0  itMISS:          0  dtACCESS:          0  dtHIT:          0  dtMISS:          0
cpu0_ITLB PREFETCH     ACCESS:          0  HIT:          0  MISS:          0  iACCESS:          0  iHIT:          0  iMISS:          0  dACCESS:          0  dHIT:          0  dMISS:          0  itACCESS:          0  itHIT:          0  itMISS:          0  dtACCESS:          0  dtHIT:          0  dtMISS:          0
cpu0_ITLB WRITE        ACCESS:          0  HIT:          0  MISS:          0  iACCESS:          0  iHIT:          0  iMISS:          0  dACCESS:          0  dHIT:          0  dMISS:          0  itACCESS:          0  itHIT:          0  itMISS:          0  dtACCESS:          0  dtHIT:          0  dtMISS:          0
cpu0_ITLB TRANSLATION  ACCESS:          0  HIT:          0  MISS:          0  iACCESS:          0  iHIT:          0  iMISS:          0  dACCESS:          0  dHIT:          0  dMISS:          0  itACCESS:          0  itHIT:          0  itMISS:          0  dtACCESS:          0  dtHIT:          0  dtMISS:          0
cpu0_ITLB PREFETCH  REQUESTED:          0  ISSUED:          0  CROSSED:          0  USEFUL:     319437  USELESS:      66451
cpu0_ITLB AVERAGE iMISS LATENCY: 2.2772 cycles
cpu0_ITLB AVERAGE dMISS LATENCY: 0 cycles
cpu0_ITLB AVERAGE itMISS LATENCY: 0 cycles
cpu0_ITLB AVERAGE dtMISS LATENCY: 0 cycles
cpu0_ITLB PAGE CROSSINGS (TLB HIT):         0 
cpu0_ITLB PAGE CROSSINGS (TLB MISS):         0 
cpu0_ITLB AVERAGE MISS LATENCY: 2.2772 cycles
cpu0_DTLB TOTAL       ACCESS:   27665126  HIT:   25759307  MISS:    1905819  iACCESS:          0  iHIT:          0  iMISS:          0  dACCESS:   27665126  dHIT:   25759307  dMISS:    1905819  itACCESS:          0  itHIT:          0  itMISS:          0  dtACCESS:          0  dtHIT:          0  dtMISS:          0
cpu0_DTLB LOAD         ACCESS:   27665126  HIT:   25759307  MISS:    1905819  iACCESS:          0  iHIT:          0  iMISS:          0  dACCESS:   27665126  dHIT:   25759307  dMISS:    1905819  itACCESS:          0  itHIT:          0  itMISS:          0  dtACCESS:          0  dtHIT:          0  dtMISS:          0
cpu0_DTLB RFO          ACCESS:          0  HIT:          0  MISS:          0  iACCESS:          0  iHIT:          0  iMISS:          0  dACCESS:          0  dHIT:          0  dMISS:          0  itACCESS:          0  itHIT:          0  itMISS:          0  dtACCESS:          0  dtHIT:          0  dtMISS:          0
cpu0_DTLB PREFETCH     ACCESS:          0  HIT:          0  MISS:          0  iACCESS:          0  iHIT:          0  iMISS:          0  dACCESS:          0  dHIT:          0  dMISS:          0  itACCESS:          0  itHIT:          0  itMISS:          0  dtACCESS:          0  dtHIT:          0  dtMISS:          0
cpu0_DTLB WRITE        ACCESS:          0  HIT:          0  MISS:          0  iACCESS:          0  iHIT:          0  iMISS:          0  dACCESS:          0  dHIT:          0  dMISS:          0  itACCESS:          0  itHIT:          0  itMISS:          0  dtACCESS:          0  dtHIT:          0  dtMISS:          0
cpu0_DTLB TRANSLATION  ACCESS:          0  HIT:          0  MISS:          0  iACCESS:          0  iHIT:          0  iMISS:          0  dACCESS:          0  dHIT:          0  dMISS:          0  itACCESS:          0  itHIT:          0  itMISS:          0  dtACCESS:          0  dtHIT:          0  dtMISS:          0
cpu0_DTLB PREFETCH  REQUESTED:          0  ISSUED:          0  CROSSED:          0  USEFUL:          0  USELESS:          0
cpu0_DTLB AVERAGE iMISS LATENCY: 0 cycles
cpu0_DTLB AVERAGE dMISS LATENCY: 17.6242 cycles
cpu0_DTLB AVERAGE itMISS LATENCY: 0 cycles
cpu0_DTLB AVERAGE dtMISS LATENCY: 0 cycles
cpu0_DTLB PAGE CROSSINGS (TLB HIT):         0 
cpu0_DTLB PAGE CROSSINGS (TLB MISS):         0 
cpu0_DTLB AVERAGE MISS LATENCY: 17.6242 cycles
cpu0_STLB TOTAL       ACCESS:    1536663  HIT:    1389411  MISS:     147252  iACCESS:     385891  iHIT:     376418  iMISS:       9473  dACCESS:    1150772  dHIT:    1012993  dMISS:     137779  itACCESS:          0  itHIT:          0  itMISS:          0  dtACCESS:          0  dtHIT:          0  dtMISS:          0
cpu0_STLB LOAD         ACCESS:    1536663  HIT:    1389411  MISS:     147252  iACCESS:     385891  iHIT:     376418  iMISS:       9473  dACCESS:    1150772  dHIT:    1012993  dMISS:     137779  itACCESS:          0  itHIT:          0  itMISS:          0  dtACCESS:          0  dtHIT:          0  dtMISS:          0
cpu0_STLB RFO          ACCESS:          0  HIT:          0  MISS:          0  iACCESS:          0  iHIT:          0  iMISS:          0  dACCESS:          0  dHIT:          0  dMISS:          0  itACCESS:          0  itHIT:          0  itMISS:          0  dtACCESS:          0  dtHIT:          0  dtMISS:          0
cpu0_STLB PREFETCH     ACCESS:          0  HIT:          0  MISS:          0  iACCESS:          0  iHIT:          0  iMISS:          0  dACCESS:          0  dHIT:          0  dMISS:          0  itACCESS:          0  itHIT:          0  itMISS:          0  dtACCESS:          0  dtHIT:          0  dtMISS:          0
cpu0_STLB WRITE        ACCESS:          0  HIT:          0  MISS:          0  iACCESS:          0  iHIT:          0  iMISS:          0  dACCESS:          0  dHIT:          0  dMISS:          0  itACCESS:          0  itHIT:          0  itMISS:          0  dtACCESS:          0  dtHIT:          0  dtMISS:          0
cpu0_STLB TRANSLATION  ACCESS:          0  HIT:          0  MISS:          0  iACCESS:          0  iHIT:          0  iMISS:          0  dACCESS:          0  dHIT:          0  dMISS:          0  itACCESS:          0  itHIT:          0  itMISS:          0  dtACCESS:          0  dtHIT:          0  dtMISS:          0
cpu0_STLB PREFETCH  REQUESTED:          0  ISSUED:          0  CROSSED:          0  USEFUL:          0  USELESS:          0
cpu0_STLB AVERAGE iMISS LATENCY: 10.0692 cycles
cpu0_STLB AVERAGE dMISS LATENCY: 165.48 cycles
cpu0_STLB AVERAGE itMISS LATENCY: 0 cycles
cpu0_STLB AVERAGE dtMISS LATENCY: 0 cycles
cpu0_STLB PAGE CROSSINGS (TLB HIT):         0 
cpu0_STLB PAGE CROSSINGS (TLB MISS):         0 
cpu0_STLB AVERAGE MISS LATENCY: 175.549 cycles
cpu0_L1D TOTAL       ACCESS:   41346436  HIT:   37941543  MISS:    3404893  iACCESS:          0  iHIT:          0  iMISS:          0  dACCESS:   41131537  dHIT:   37927092  dMISS:    3204445  itACCESS:      11608  itHIT:       1284  itMISS:      10324  dtACCESS:     203291  dtHIT:      13167  dtMISS:     190124
cpu0_L1D LOAD         ACCESS:   18887093  HIT:   17427457  MISS:    1459636  iACCESS:          0  iHIT:          0  iMISS:          0  dACCESS:   18887093  dHIT:   17427457  dMISS:    1459636  itACCESS:          0  itHIT:          0  itMISS:          0  dtACCESS:          0  dtHIT:          0  dtMISS:          0
cpu0_L1D RFO          ACCESS:          0  HIT:          0  MISS:          0  iACCESS:          0  iHIT:          0  iMISS:          0  dACCESS:          0  dHIT:          0  dMISS:          0  itACCESS:          0  itHIT:          0  itMISS:          0  dtACCESS:          0  dtHIT:          0  dtMISS:          0
cpu0_L1D PREFETCH     ACCESS:   12061583  HIT:   10762439  MISS:    1299144  iACCESS:          0  iHIT:          0  iMISS:          0  dACCESS:   12061583  dHIT:   10762439  dMISS:    1299144  itACCESS:          0  itHIT:          0  itMISS:          0  dtACCESS:          0  dtHIT:          0  dtMISS:          0
cpu0_L1D WRITE        ACCESS:   10182861  HIT:    9737196  MISS:     445665  iACCESS:          0  iHIT:          0  iMISS:          0  dACCESS:   10182861  dHIT:    9737196  dMISS:     445665  itACCESS:          0  itHIT:          0  itMISS:          0  dtACCESS:          0  dtHIT:          0  dtMISS:          0
cpu0_L1D TRANSLATION  ACCESS:     214899  HIT:      14451  MISS:     200448  iACCESS:          0  iHIT:          0  iMISS:          0  dACCESS:          0  dHIT:          0  dMISS:          0  itACCESS:      11608  itHIT:       1284  itMISS:      10324  dtACCESS:     203291  dtHIT:      13167  dtMISS:     190124
cpu0_L1D PREFETCH  REQUESTED:   18887093  ISSUED:   16882682  CROSSED:          0  USEFUL:     302433  USELESS:     693709
cpu0_L1D AVERAGE iMISS LATENCY: 0 cycles
cpu0_L1D AVERAGE dMISS LATENCY: 33.9837 cycles
cpu0_L1D AVERAGE itMISS LATENCY: 0.399851 cycles
cpu0_L1D AVERAGE dtMISS LATENCY: 6.28608 cycles
cpu0_L1D PAGE CROSSINGS (TLB HIT):         0 
cpu0_L1D PAGE CROSSINGS (TLB MISS):         0 
cpu0_L1D AVERAGE MISS LATENCY: 40.6697 cycles
cpu0_L2C TOTAL       ACCESS:    6862602  HIT:    3941831  MISS:    2920771  iACCESS:    3256857  iHIT:    2152066  iMISS:    1104791  dACCESS:    3411740  dHIT:    1754569  dMISS:    1657171  itACCESS:      10216  itHIT:       1722  itMISS:       8494  dtACCESS:     183789  dtHIT:      33474  dtMISS:     150315
cpu0_L2C LOAD         ACCESS:    1708763  HIT:    1015853  MISS:     692910  iACCESS:     788258  iHIT:     545427  iMISS:     242831  dACCESS:     920505  dHIT:     470426  dMISS:     450079  itACCESS:          0  itHIT:          0  itMISS:          0  dtACCESS:          0  dtHIT:          0  dtMISS:          0
cpu0_L2C RFO          ACCESS:     155742  HIT:      66691  MISS:      89051  iACCESS:          0  iHIT:          0  iMISS:          0  dACCESS:     155742  dHIT:      66691  dMISS:      89051  itACCESS:          0  itHIT:          0  itMISS:          0  dtACCESS:          0  dtHIT:          0  dtMISS:          0
cpu0_L2C PREFETCH     ACCESS:    4521109  HIT:    2542976  MISS:    1978133  iACCESS:    2468599  iHIT:    1606639  iMISS:     861960  dACCESS:    2052510  dHIT:     936337  dMISS:    1116173  itACCESS:          0  itHIT:          0  itMISS:          0  dtACCESS:          0  dtHIT:          0  dtMISS:          0
cpu0_L2C WRITE        ACCESS:     282983  HIT:     281115  MISS:       1868  iACCESS:          0  iHIT:          0  iMISS:          0  dACCESS:     282983  dHIT:     281115  dMISS:       1868  itACCESS:          0  itHIT:          0  itMISS:          0  dtACCESS:          0  dtHIT:          0  dtMISS:          0
cpu0_L2C TRANSLATION  ACCESS:     194005  HIT:      35196  MISS:     158809  iACCESS:          0  iHIT:          0  iMISS:          0  dACCESS:          0  dHIT:          0  dMISS:          0  itACCESS:      10216  itHIT:       1722  itMISS:       8494  dtACCESS:     183789  dtHIT:      33474  dtMISS:     150315
cpu0_L2C PREFETCH  REQUESTED:    1300421  ISSUED:    1300421  CROSSED:          0  USEFUL:     303644  USELESS:     230104
cpu0_L2C AVERAGE iMISS LATENCY: 26.323 cycles
cpu0_L2C AVERAGE dMISS LATENCY: 47.2083 cycles
cpu0_L2C AVERAGE itMISS LATENCY: 0.431675 cycles
cpu0_L2C AVERAGE dtMISS LATENCY: 6.70543 cycles
cpu0_L2C PAGE CROSSINGS (TLB HIT):         0 
cpu0_L2C PAGE CROSSINGS (TLB MISS):         0 
cpu0_L2C AVERAGE MISS LATENCY: 80.6684 cycles
LLC TOTAL       ACCESS:    2948071  HIT:    1799676  MISS:    1148395  iACCESS:    1050232  iHIT:     668987  iMISS:     381245  dACCESS:    1739030  dHIT:    1072177  dMISS:     666853  itACCESS:       8494  itHIT:       2227  itMISS:       6267  dtACCESS:     150315  dtHIT:      56285  dtMISS:      94030
LLC LOAD         ACCESS:     691509  HIT:     442860  MISS:     248649  iACCESS:     241752  iHIT:     159240  iMISS:      82512  dACCESS:     449757  dHIT:     283620  dMISS:     166137  itACCESS:          0  itHIT:          0  itMISS:          0  dtACCESS:          0  dtHIT:          0  dtMISS:          0
LLC RFO          ACCESS:      89033  HIT:      44736  MISS:      44297  iACCESS:          0  iHIT:          0  iMISS:          0  dACCESS:      89033  dHIT:      44736  dMISS:      44297  itACCESS:          0  itHIT:          0  itMISS:          0  dtACCESS:          0  dtHIT:          0  dtMISS:          0
LLC PREFETCH     ACCESS:    1869648  HIT:    1121188  MISS:     748460  iACCESS:     808480  iHIT:     509747  iMISS:     298733  dACCESS:    1061168  dHIT:     611441  dMISS:     449727  itACCESS:          0  itHIT:          0  itMISS:          0  dtACCESS:          0  dtHIT:          0  dtMISS:          0
LLC WRITE        ACCESS:     139072  HIT:     132380  MISS:       6692  iACCESS:          0  iHIT:          0  iMISS:          0  dACCESS:     139072  dHIT:     132380  dMISS:       6692  itACCESS:          0  itHIT:          0  itMISS:          0  dtACCESS:          0  dtHIT:          0  dtMISS:          0
LLC TRANSLATION  ACCESS:     158809  HIT:      58512  MISS:     100297  iACCESS:          0  iHIT:          0  iMISS:          0  dACCESS:          0  dHIT:          0  dMISS:          0  itACCESS:       8494  itHIT:       2227  itMISS:       6267  dtACCESS:     150315  dtHIT:      56285  dtMISS:      94030
LLC PREFETCH  REQUESTED:          0  ISSUED:          0  CROSSED:          0  USEFUL:          0  USELESS:          0
LLC AVERAGE iMISS LATENCY: 49.169 cycles
LLC AVERAGE dMISS LATENCY: 93.0694 cycles
LLC AVERAGE itMISS LATENCY: 0.952384 cycles
LLC AVERAGE dtMISS LATENCY: 14.4923 cycles
LLC PAGE CROSSINGS (TLB HIT):         0 
LLC PAGE CROSSINGS (TLB MISS):         0 
LLC AVERAGE MISS LATENCY: 157.683 cycles

PageTableWalker TOTAL       ACCESS:      69974  
PageTableWalker AVERAGE LATENCY: 5.84346 cycles
PageTableWalker TOTAL LATENCY: 408890 cycles

DRAM Statistics
Channel 0
 RQ ROW_BUFFER_HIT:     305154
  ROW_BUFFER_MISS:     836487
 AVG DBUS CONGESTED CYCLE:    3.61913
 WQ ROW_BUFFER_HIT:      24256
  ROW_BUFFER_MISS:      23828  FULL:          0

