last_page:0x200000000000000
VMEM_RES_CAP:0x100000
PAGE_SIZE:4096
LOG2_PAGE_SIZE:12
LOG2_PAGE_TABLE_SIZE:9
page_table_levels:5
WARNING: physical memory size is smaller than virtual memory size
FDiP enabled with aggresivity 16

*** ChampSim Multicore Out-of-Order Simulator ***

Warmup Instructions: 50000000
Simulation Instructions: 100000000
Number of CPUs: 1
Small page size: 4096
Large page size: 2097152

CPU 0 Bimodal branch predictor
Basic BTB sets: 1024 ways: 8 indirect buffer size: 4096 RAS size: 64
Instruction page size distrubution: 0
Loading instruction page size distribution from /home/bsc/bsc018186/scratch/itp_asplos25_AE/dump/srv771_ap.pdst
Data page size distrubution: 0
Loading data page size distribution from /home/bsc/bsc018186/scratch/itp_asplos25_AE/dump/srv771_ap.pdst
cpu0_L2C IP-based stride prefetcher
cpu0_L1D next line prefetcher
cpu0_L1I next line prefetcher
Off-chip DRAM Size: 4 GiB Channels: 1 Width: 64-bit Data Rate: 3200 MT/s
Heartbeat CPU 0 instructions: 10000003 cycles: 2500153 heartbeat IPC: 3.99976 cumulative IPC: 3.99976 (Simulation time: 0 hr 0 min 40 sec) 
Heartbeat CPU 0 instructions: 20000000 cycles: 5000217 heartbeat IPC: 3.9999 cumulative IPC: 3.99983 (Simulation time: 0 hr 1 min 21 sec) 
Heartbeat CPU 0 instructions: 30000001 cycles: 7500278 heartbeat IPC: 3.99991 cumulative IPC: 3.99986 (Simulation time: 0 hr 2 min 4 sec) 
Heartbeat CPU 0 instructions: 40000001 cycles: 10000314 heartbeat IPC: 3.99995 cumulative IPC: 3.99988 (Simulation time: 0 hr 2 min 46 sec) 
Heartbeat CPU 0 instructions: 50000002 cycles: 12500423 heartbeat IPC: 3.99983 cumulative IPC: 3.99987 (Simulation time: 0 hr 3 min 28 sec) 
Warmup finished CPU 0 instructions: 50000002 cycles: 12500424 cumulative IPC: 3.99987 (Simulation time: 0 hr 3 min 28 sec) 

Warmup complete CPU 0 instructions: 50000002 cycles: 12500424 (Simulation time: 0 hr 3 min 28 sec) 

Heartbeat CPU 0 instructions: 60000000 cycles: 30153315 heartbeat IPC: 0.56648 cumulative IPC: 0.56648 (Simulation time: 0 hr 4 min 39 sec) 
Heartbeat CPU 0 instructions: 70000004 cycles: 48872500 heartbeat IPC: 0.534212 cumulative IPC: 0.549873 (Simulation time: 0 hr 5 min 52 sec) 
Heartbeat CPU 0 instructions: 80000000 cycles: 66410956 heartbeat IPC: 0.570176 cumulative IPC: 0.556478 (Simulation time: 0 hr 7 min 3 sec) 
Heartbeat CPU 0 instructions: 90000002 cycles: 84673136 heartbeat IPC: 0.54758 cumulative IPC: 0.554227 (Simulation time: 0 hr 8 min 15 sec) 
Heartbeat CPU 0 instructions: 100000002 cycles: 102837546 heartbeat IPC: 0.550528 cumulative IPC: 0.553483 (Simulation time: 0 hr 9 min 28 sec) 
*** Reached end of trace: /gpfs/projects/bsc18/MN4/bsc18/romol/ChampSim/traces/qualcomm_srv/srv771_ap.champsimtrace.xz
Heartbeat CPU 0 instructions: 110000000 cycles: 120366912 heartbeat IPC: 0.570472 cumulative IPC: 0.556244 (Simulation time: 0 hr 10 min 41 sec) 
Heartbeat CPU 0 instructions: 120000000 cycles: 138001628 heartbeat IPC: 0.567064 cumulative IPC: 0.557764 (Simulation time: 0 hr 11 min 53 sec) 
Heartbeat CPU 0 instructions: 130000004 cycles: 155407490 heartbeat IPC: 0.57452 cumulative IPC: 0.559805 (Simulation time: 0 hr 13 min 6 sec) 
Heartbeat CPU 0 instructions: 140000000 cycles: 172971108 heartbeat IPC: 0.569359 cumulative IPC: 0.560851 (Simulation time: 0 hr 14 min 16 sec) 
Heartbeat CPU 0 instructions: 150000002 cycles: 191570422 heartbeat IPC: 0.537655 cumulative IPC: 0.558441 (Simulation time: 0 hr 15 min 28 sec) 
Simulation finished CPU 0 instructions: 100000000 cycles: 179069999 cumulative IPC: 0.558441 (Simulation time: 0 hr 15 min 28 sec) 

Simulation complete CPU 0 instructions: 100000000 cycles: 179069999 (Simulation time: 0 hr 15 min 28 sec) 


ChampSim completed all CPUs

Saving instructions large page distribution to /home/bsc/bsc018186/scratch/itp_asplos25_AE/dump/srv771_ap.pdst...
Saving data large page distribution to /home/bsc/bsc018186/scratch/itp_asplos25_AE/dump/srv771_ap.pdst...
=== Simulation ===
CPU 0 runs /gpfs/projects/bsc18/MN4/bsc18/romol/ChampSim/traces/qualcomm_srv/srv771_ap.champsimtrace.xz

Region of Interest Statistics

CPU 0 cumulative IPC: 0.558441 instructions: 100000000 cycles: 179069999
CPU 0 Branch Prediction Accuracy: 80.1658% MPKI: 35.876 Average ROB Occupancy at Mispredict: 10.4654
Branch type MPKI
BRANCH_DIRECT_JUMP: 1.33593
BRANCH_INDIRECT: 18.0412
BRANCH_CONDITIONAL: 11.5983
BRANCH_DIRECT_CALL: 2.51544
BRANCH_INDIRECT_CALL: 0.665761
BRANCH_RETURN: 1.71941

Instructions large pages: 0
Instructions small pages: 6153
Large page distribution for instructions: 0%

Data large pages: 0
Data small pages: 5064
Large page distribution for data: 0%

cpu0_L1I TOTAL       ACCESS:   36424335  HIT:   28010225  MISS:    8414110  iACCESS:   36424335  iHIT:   28010225  iMISS:    8414110  dACCESS:          0  dHIT:          0  dMISS:          0  itACCESS:          0  itHIT:          0  itMISS:          0  dtACCESS:          0  dtHIT:          0  dtMISS:          0
cpu0_L1I LOAD         ACCESS:   10644948  HIT:    8337830  MISS:    2307118  iACCESS:   10644948  iHIT:    8337830  iMISS:    2307118  dACCESS:          0  dHIT:          0  dMISS:          0  itACCESS:          0  itHIT:          0  itMISS:          0  dtACCESS:          0  dtHIT:          0  dtMISS:          0
cpu0_L1I RFO          ACCESS:          0  HIT:          0  MISS:          0  iACCESS:          0  iHIT:          0  iMISS:          0  dACCESS:          0  dHIT:          0  dMISS:          0  itACCESS:          0  itHIT:          0  itMISS:          0  dtACCESS:          0  dtHIT:          0  dtMISS:          0
cpu0_L1I PREFETCH     ACCESS:   25779387  HIT:   19672395  MISS:    6106992  iACCESS:   25779387  iHIT:   19672395  iMISS:    6106992  dACCESS:          0  dHIT:          0  dMISS:          0  itACCESS:          0  itHIT:          0  itMISS:          0  dtACCESS:          0  dtHIT:          0  dtMISS:          0
cpu0_L1I WRITE        ACCESS:          0  HIT:          0  MISS:          0  iACCESS:          0  iHIT:          0  iMISS:          0  dACCESS:          0  dHIT:          0  dMISS:          0  itACCESS:          0  itHIT:          0  itMISS:          0  dtACCESS:          0  dtHIT:          0  dtMISS:          0
cpu0_L1I TRANSLATION  ACCESS:          0  HIT:          0  MISS:          0  iACCESS:          0  iHIT:          0  iMISS:          0  dACCESS:          0  dHIT:          0  dMISS:          0  itACCESS:          0  itHIT:          0  itMISS:          0  dtACCESS:          0  dtHIT:          0  dtMISS:          0
cpu0_L1I PREFETCH  REQUESTED:   28167286  ISSUED:   28165998  CROSSED:          0  USEFUL:    2016203  USELESS:     657662
cpu0_L1I AVERAGE iMISS LATENCY: 17.8212 cycles
cpu0_L1I AVERAGE dMISS LATENCY: 0 cycles
cpu0_L1I AVERAGE itMISS LATENCY: 0 cycles
cpu0_L1I AVERAGE dtMISS LATENCY: 0 cycles
cpu0_L1I PAGE CROSSINGS (TLB HIT):         0 
cpu0_L1I PAGE CROSSINGS (TLB MISS):         0 
cpu0_L1I AVERAGE MISS LATENCY: 17.8212 cycles
cpu0_ITLB TOTAL       ACCESS:   30387075  HIT:   28432153  MISS:    1954922  iACCESS:   30387075  iHIT:   28432153  iMISS:    1954922  dACCESS:          0  dHIT:          0  dMISS:          0  itACCESS:          0  itHIT:          0  itMISS:          0  dtACCESS:          0  dtHIT:          0  dtMISS:          0
cpu0_ITLB LOAD         ACCESS:   30387075  HIT:   28432153  MISS:    1954922  iACCESS:   30387075  iHIT:   28432153  iMISS:    1954922  dACCESS:          0  dHIT:          0  dMISS:          0  itACCESS:          0  itHIT:          0  itMISS:          0  dtACCESS:          0  dtHIT:          0  dtMISS:          0
cpu0_ITLB RFO          ACCESS:          0  HIT:          0  MISS:          0  iACCESS:          0  iHIT:          0  iMISS:          0  dACCESS:          0  dHIT:          0  dMISS:          0  itACCESS:          0  itHIT:          0  itMISS:          0  dtACCESS:          0  dtHIT:          0  dtMISS:          0
cpu0_ITLB PREFETCH     ACCESS:          0  HIT:          0  MISS:          0  iACCESS:          0  iHIT:          0  iMISS:          0  dACCESS:          0  dHIT:          0  dMISS:          0  itACCESS:          0  itHIT:          0  itMISS:          0  dtACCESS:          0  dtHIT:          0  dtMISS:          0
cpu0_ITLB WRITE        ACCESS:          0  HIT:          0  MISS:          0  iACCESS:          0  iHIT:          0  iMISS:          0  dACCESS:          0  dHIT:          0  dMISS:          0  itACCESS:          0  itHIT:          0  itMISS:          0  dtACCESS:          0  dtHIT:          0  dtMISS:          0
cpu0_ITLB TRANSLATION  ACCESS:          0  HIT:          0  MISS:          0  iACCESS:          0  iHIT:          0  iMISS:          0  dACCESS:          0  dHIT:          0  dMISS:          0  itACCESS:          0  itHIT:          0  itMISS:          0  dtACCESS:          0  dtHIT:          0  dtMISS:          0
cpu0_ITLB PREFETCH  REQUESTED:          0  ISSUED:          0  CROSSED:          0  USEFUL:     329264  USELESS:      66244
cpu0_ITLB AVERAGE iMISS LATENCY: 4.07372 cycles
cpu0_ITLB AVERAGE dMISS LATENCY: 0 cycles
cpu0_ITLB AVERAGE itMISS LATENCY: 0 cycles
cpu0_ITLB AVERAGE dtMISS LATENCY: 0 cycles
cpu0_ITLB PAGE CROSSINGS (TLB HIT):         0 
cpu0_ITLB PAGE CROSSINGS (TLB MISS):         0 
cpu0_ITLB AVERAGE MISS LATENCY: 4.07372 cycles
cpu0_DTLB TOTAL       ACCESS:   28005809  HIT:   26049635  MISS:    1956174  iACCESS:          0  iHIT:          0  iMISS:          0  dACCESS:   28005809  dHIT:   26049635  dMISS:    1956174  itACCESS:          0  itHIT:          0  itMISS:          0  dtACCESS:          0  dtHIT:          0  dtMISS:          0
cpu0_DTLB LOAD         ACCESS:   28005809  HIT:   26049635  MISS:    1956174  iACCESS:          0  iHIT:          0  iMISS:          0  dACCESS:   28005809  dHIT:   26049635  dMISS:    1956174  itACCESS:          0  itHIT:          0  itMISS:          0  dtACCESS:          0  dtHIT:          0  dtMISS:          0
cpu0_DTLB RFO          ACCESS:          0  HIT:          0  MISS:          0  iACCESS:          0  iHIT:          0  iMISS:          0  dACCESS:          0  dHIT:          0  dMISS:          0  itACCESS:          0  itHIT:          0  itMISS:          0  dtACCESS:          0  dtHIT:          0  dtMISS:          0
cpu0_DTLB PREFETCH     ACCESS:          0  HIT:          0  MISS:          0  iACCESS:          0  iHIT:          0  iMISS:          0  dACCESS:          0  dHIT:          0  dMISS:          0  itACCESS:          0  itHIT:          0  itMISS:          0  dtACCESS:          0  dtHIT:          0  dtMISS:          0
cpu0_DTLB WRITE        ACCESS:          0  HIT:          0  MISS:          0  iACCESS:          0  iHIT:          0  iMISS:          0  dACCESS:          0  dHIT:          0  dMISS:          0  itACCESS:          0  itHIT:          0  itMISS:          0  dtACCESS:          0  dtHIT:          0  dtMISS:          0
cpu0_DTLB TRANSLATION  ACCESS:          0  HIT:          0  MISS:          0  iACCESS:          0  iHIT:          0  iMISS:          0  dACCESS:          0  dHIT:          0  dMISS:          0  itACCESS:          0  itHIT:          0  itMISS:          0  dtACCESS:          0  dtHIT:          0  dtMISS:          0
cpu0_DTLB PREFETCH  REQUESTED:          0  ISSUED:          0  CROSSED:          0  USEFUL:          0  USELESS:          0
cpu0_DTLB AVERAGE iMISS LATENCY: 0 cycles
cpu0_DTLB AVERAGE dMISS LATENCY: 11.5938 cycles
cpu0_DTLB AVERAGE itMISS LATENCY: 0 cycles
cpu0_DTLB AVERAGE dtMISS LATENCY: 0 cycles
cpu0_DTLB PAGE CROSSINGS (TLB HIT):         0 
cpu0_DTLB PAGE CROSSINGS (TLB MISS):         0 
cpu0_DTLB AVERAGE MISS LATENCY: 11.5938 cycles
cpu0_STLB TOTAL       ACCESS:    1619160  HIT:    1393831  MISS:     225329  iACCESS:     395525  iHIT:     308959  iMISS:      86566  dACCESS:    1223635  dHIT:    1084872  dMISS:     138763  itACCESS:          0  itHIT:          0  itMISS:          0  dtACCESS:          0  dtHIT:          0  dtMISS:          0
cpu0_STLB LOAD         ACCESS:    1619160  HIT:    1393831  MISS:     225329  iACCESS:     395525  iHIT:     308959  iMISS:      86566  dACCESS:    1223635  dHIT:    1084872  dMISS:     138763  itACCESS:          0  itHIT:          0  itMISS:          0  dtACCESS:          0  dtHIT:          0  dtMISS:          0
cpu0_STLB RFO          ACCESS:          0  HIT:          0  MISS:          0  iACCESS:          0  iHIT:          0  iMISS:          0  dACCESS:          0  dHIT:          0  dMISS:          0  itACCESS:          0  itHIT:          0  itMISS:          0  dtACCESS:          0  dtHIT:          0  dtMISS:          0
cpu0_STLB PREFETCH     ACCESS:          0  HIT:          0  MISS:          0  iACCESS:          0  iHIT:          0  iMISS:          0  dACCESS:          0  dHIT:          0  dMISS:          0  itACCESS:          0  itHIT:          0  itMISS:          0  dtACCESS:          0  dtHIT:          0  dtMISS:          0
cpu0_STLB WRITE        ACCESS:          0  HIT:          0  MISS:          0  iACCESS:          0  iHIT:          0  iMISS:          0  dACCESS:          0  dHIT:          0  dMISS:          0  itACCESS:          0  itHIT:          0  itMISS:          0  dtACCESS:          0  dtHIT:          0  dtMISS:          0
cpu0_STLB TRANSLATION  ACCESS:          0  HIT:          0  MISS:          0  iACCESS:          0  iHIT:          0  iMISS:          0  dACCESS:          0  dHIT:          0  dMISS:          0  itACCESS:          0  itHIT:          0  itMISS:          0  dtACCESS:          0  dtHIT:          0  dtMISS:          0
cpu0_STLB PREFETCH  REQUESTED:          0  ISSUED:          0  CROSSED:          0  USEFUL:          0  USELESS:          0
cpu0_STLB AVERAGE iMISS LATENCY: 21.363 cycles
cpu0_STLB AVERAGE dMISS LATENCY: 57.2895 cycles
cpu0_STLB AVERAGE itMISS LATENCY: 0 cycles
cpu0_STLB AVERAGE dtMISS LATENCY: 0 cycles
cpu0_STLB PAGE CROSSINGS (TLB HIT):         0 
cpu0_STLB PAGE CROSSINGS (TLB MISS):         0 
cpu0_STLB AVERAGE MISS LATENCY: 78.6524 cycles
cpu0_L1D TOTAL       ACCESS:   42669229  HIT:   38554769  MISS:    4114460  iACCESS:          0  iHIT:          0  iMISS:          0  dACCESS:   42383392  dHIT:   38531257  dMISS:    3852135  itACCESS:      92250  itHIT:      12721  itMISS:      79529  dtACCESS:     193587  dtHIT:      10791  dtMISS:     182796
cpu0_L1D LOAD         ACCESS:   19416670  HIT:   17655341  MISS:    1761329  iACCESS:          0  iHIT:          0  iMISS:          0  dACCESS:   19416670  dHIT:   17655341  dMISS:    1761329  itACCESS:          0  itHIT:          0  itMISS:          0  dtACCESS:          0  dtHIT:          0  dtMISS:          0
cpu0_L1D RFO          ACCESS:          0  HIT:          0  MISS:          0  iACCESS:          0  iHIT:          0  iMISS:          0  dACCESS:          0  dHIT:          0  dMISS:          0  itACCESS:          0  itHIT:          0  itMISS:          0  dtACCESS:          0  dtHIT:          0  dtMISS:          0
cpu0_L1D PREFETCH     ACCESS:   12846583  HIT:   11185898  MISS:    1660685  iACCESS:          0  iHIT:          0  iMISS:          0  dACCESS:   12846583  dHIT:   11185898  dMISS:    1660685  itACCESS:          0  itHIT:          0  itMISS:          0  dtACCESS:          0  dtHIT:          0  dtMISS:          0
cpu0_L1D WRITE        ACCESS:   10120139  HIT:    9690018  MISS:     430121  iACCESS:          0  iHIT:          0  iMISS:          0  dACCESS:   10120139  dHIT:    9690018  dMISS:     430121  itACCESS:          0  itHIT:          0  itMISS:          0  dtACCESS:          0  dtHIT:          0  dtMISS:          0
cpu0_L1D TRANSLATION  ACCESS:     285837  HIT:      23512  MISS:     262325  iACCESS:          0  iHIT:          0  iMISS:          0  dACCESS:          0  dHIT:          0  dMISS:          0  itACCESS:      92250  itHIT:      12721  itMISS:      79529  dtACCESS:     193587  dtHIT:      10791  dtMISS:     182796
cpu0_L1D PREFETCH  REQUESTED:   19416670  ISSUED:   17289028  CROSSED:          0  USEFUL:     313503  USELESS:     703368
cpu0_L1D AVERAGE iMISS LATENCY: 0 cycles
cpu0_L1D AVERAGE dMISS LATENCY: 38.0954 cycles
cpu0_L1D AVERAGE itMISS LATENCY: 0.98816 cycles
cpu0_L1D AVERAGE dtMISS LATENCY: 2.66008 cycles
cpu0_L1D PAGE CROSSINGS (TLB HIT):         0 
cpu0_L1D PAGE CROSSINGS (TLB MISS):         0 
cpu0_L1D AVERAGE MISS LATENCY: 41.7437 cycles
cpu0_L2C TOTAL       ACCESS:    7325995  HIT:    1670486  MISS:    5655509  iACCESS:    3411793  iHIT:     877759  iMISS:    2534034  dACCESS:    3659742  dHIT:     637502  dMISS:    3022240  itACCESS:      79529  itHIT:      55508  itMISS:      24021  dtACCESS:     174931  dtHIT:      99717  dtMISS:      75214
cpu0_L2C LOAD         ACCESS:    1727285  HIT:     254875  MISS:    1472410  iACCESS:     776203  iHIT:     134894  iMISS:     641309  dACCESS:     951082  dHIT:     119981  dMISS:     831101  itACCESS:          0  itHIT:          0  itMISS:          0  dtACCESS:          0  dtHIT:          0  dtMISS:          0
cpu0_L2C RFO          ACCESS:     161081  HIT:      45067  MISS:     116014  iACCESS:          0  iHIT:          0  iMISS:          0  dACCESS:     161081  dHIT:      45067  dMISS:     116014  itACCESS:          0  itHIT:          0  itMISS:          0  dtACCESS:          0  dtHIT:          0  dtMISS:          0
cpu0_L2C PREFETCH     ACCESS:    4908826  HIT:    1097004  MISS:    3811822  iACCESS:    2635590  iHIT:     742865  iMISS:    1892725  dACCESS:    2273236  dHIT:     354139  dMISS:    1919097  itACCESS:          0  itHIT:          0  itMISS:          0  dtACCESS:          0  dtHIT:          0  dtMISS:          0
cpu0_L2C WRITE        ACCESS:     274343  HIT:     118315  MISS:     156028  iACCESS:          0  iHIT:          0  iMISS:          0  dACCESS:     274343  dHIT:     118315  dMISS:     156028  itACCESS:          0  itHIT:          0  itMISS:          0  dtACCESS:          0  dtHIT:          0  dtMISS:          0
cpu0_L2C TRANSLATION  ACCESS:     254460  HIT:     155225  MISS:      99235  iACCESS:          0  iHIT:          0  iMISS:          0  dACCESS:          0  dHIT:          0  dMISS:          0  itACCESS:      79529  itHIT:      55508  itMISS:      24021  dtACCESS:     174931  dtHIT:      99717  dtMISS:      75214
cpu0_L2C PREFETCH  REQUESTED:    1528181  ISSUED:    1528177  CROSSED:          0  USEFUL:     435117  USELESS:     424946
cpu0_L2C AVERAGE iMISS LATENCY: 21.1286 cycles
cpu0_L2C AVERAGE dMISS LATENCY: 34.6068 cycles
cpu0_L2C AVERAGE itMISS LATENCY: 0.587738 cycles
cpu0_L2C AVERAGE dtMISS LATENCY: 1.64243 cycles
cpu0_L2C PAGE CROSSINGS (TLB HIT):         0 
cpu0_L2C PAGE CROSSINGS (TLB MISS):         0 
cpu0_L2C AVERAGE MISS LATENCY: 57.9655 cycles
LLC TOTAL       ACCESS:    5476692  HIT:    4024458  MISS:    1452234  iACCESS:    2459829  iHIT:    1961197  iMISS:     498632  dACCESS:    2917628  dHIT:    2022731  dMISS:     894897  itACCESS:      24021  itHIT:       7699  itMISS:      16322  dtACCESS:      75214  dtHIT:      32831  dtMISS:      42383
LLC LOAD         ACCESS:    1466073  HIT:    1139212  MISS:     326861  iACCESS:     640088  iHIT:     533825  iMISS:     106263  dACCESS:     825985  dHIT:     605387  dMISS:     220598  itACCESS:          0  itHIT:          0  itMISS:          0  dtACCESS:          0  dtHIT:          0  dtMISS:          0
LLC RFO          ACCESS:     116011  HIT:      65061  MISS:      50950  iACCESS:          0  iHIT:          0  iMISS:          0  dACCESS:     116011  dHIT:      65061  dMISS:      50950  itACCESS:          0  itHIT:          0  itMISS:          0  dtACCESS:          0  dtHIT:          0  dtMISS:          0
LLC PREFETCH     ACCESS:    3641718  HIT:    2636138  MISS:    1005580  iACCESS:    1819741  iHIT:    1427372  iMISS:     392369  dACCESS:    1821977  dHIT:    1208766  dMISS:     613211  itACCESS:          0  itHIT:          0  itMISS:          0  dtACCESS:          0  dtHIT:          0  dtMISS:          0
LLC WRITE        ACCESS:     153655  HIT:     143517  MISS:      10138  iACCESS:          0  iHIT:          0  iMISS:          0  dACCESS:     153655  dHIT:     143517  dMISS:      10138  itACCESS:          0  itHIT:          0  itMISS:          0  dtACCESS:          0  dtHIT:          0  dtMISS:          0
LLC TRANSLATION  ACCESS:      99235  HIT:      40530  MISS:      58705  iACCESS:          0  iHIT:          0  iMISS:          0  dACCESS:          0  dHIT:          0  dMISS:          0  itACCESS:      24021  itHIT:       7699  itMISS:      16322  dtACCESS:      75214  dtHIT:      32831  dtMISS:      42383
LLC PREFETCH  REQUESTED:          0  ISSUED:          0  CROSSED:          0  USEFUL:          0  USELESS:          0
LLC AVERAGE iMISS LATENCY: 49.5157 cycles
LLC AVERAGE dMISS LATENCY: 98.866 cycles
LLC AVERAGE itMISS LATENCY: 1.96403 cycles
LLC AVERAGE dtMISS LATENCY: 5.38459 cycles
LLC PAGE CROSSINGS (TLB HIT):         0 
LLC PAGE CROSSINGS (TLB MISS):         0 
LLC AVERAGE MISS LATENCY: 155.731 cycles

PageTableWalker TOTAL       ACCESS:     114844  
PageTableWalker AVERAGE LATENCY: 4.18528 cycles
PageTableWalker TOTAL LATENCY: 480654 cycles

DRAM Statistics
Channel 0
 RQ ROW_BUFFER_HIT:     441909
  ROW_BUFFER_MISS:     985587
 AVG DBUS CONGESTED CYCLE:     3.6365
 WQ ROW_BUFFER_HIT:      29114
  ROW_BUFFER_MISS:      24391  FULL:          0

