last_page:0x200000000000000
VMEM_RES_CAP:0x100000
PAGE_SIZE:4096
LOG2_PAGE_SIZE:12
LOG2_PAGE_TABLE_SIZE:9
page_table_levels:5
WARNING: physical memory size is smaller than virtual memory size
FDiP enabled with aggresivity 16

*** ChampSim Multicore Out-of-Order Simulator ***

Warmup Instructions: 50000000
Simulation Instructions: 100000000
Number of CPUs: 1
Small page size: 4096
Large page size: 2097152

CPU 0 Bimodal branch predictor
Basic BTB sets: 1024 ways: 8 indirect buffer size: 4096 RAS size: 64
Instruction page size distrubution: 0
Loading instruction page size distribution from /home/bsc/bsc018186/scratch/itp_asplos25_AE/dump/srv757_ap.pdst
Data page size distrubution: 0
Loading data page size distribution from /home/bsc/bsc018186/scratch/itp_asplos25_AE/dump/srv757_ap.pdst
cpu0_L2C IP-based stride prefetcher
cpu0_L1D next line prefetcher
cpu0_L1I next line prefetcher
Off-chip DRAM Size: 4 GiB Channels: 1 Width: 64-bit Data Rate: 3200 MT/s
Heartbeat CPU 0 instructions: 10000003 cycles: 2500143 heartbeat IPC: 3.99978 cumulative IPC: 3.99978 (Simulation time: 0 hr 0 min 39 sec) 
Heartbeat CPU 0 instructions: 20000001 cycles: 5002722 heartbeat IPC: 3.99588 cumulative IPC: 3.99783 (Simulation time: 0 hr 1 min 18 sec) 
Heartbeat CPU 0 instructions: 30000000 cycles: 7502801 heartbeat IPC: 3.99988 cumulative IPC: 3.99851 (Simulation time: 0 hr 1 min 59 sec) 
Heartbeat CPU 0 instructions: 40000000 cycles: 10003708 heartbeat IPC: 3.99855 cumulative IPC: 3.99852 (Simulation time: 0 hr 2 min 42 sec) 
Heartbeat CPU 0 instructions: 50000002 cycles: 12527110 heartbeat IPC: 3.96291 cumulative IPC: 3.99135 (Simulation time: 0 hr 3 min 23 sec) 
Warmup finished CPU 0 instructions: 50000002 cycles: 12527111 cumulative IPC: 3.99135 (Simulation time: 0 hr 3 min 23 sec) 

Warmup complete CPU 0 instructions: 50000002 cycles: 12527111 (Simulation time: 0 hr 3 min 23 sec) 

Heartbeat CPU 0 instructions: 60000004 cycles: 26963194 heartbeat IPC: 0.692709 cumulative IPC: 0.692709 (Simulation time: 0 hr 4 min 27 sec) 
Heartbeat CPU 0 instructions: 70000000 cycles: 38304457 heartbeat IPC: 0.881736 cumulative IPC: 0.775875 (Simulation time: 0 hr 5 min 25 sec) 
Heartbeat CPU 0 instructions: 80000001 cycles: 58480969 heartbeat IPC: 0.495626 cumulative IPC: 0.652829 (Simulation time: 0 hr 6 min 38 sec) 
Heartbeat CPU 0 instructions: 90000001 cycles: 79874896 heartbeat IPC: 0.467423 cumulative IPC: 0.593932 (Simulation time: 0 hr 7 min 54 sec) 
Heartbeat CPU 0 instructions: 100000001 cycles: 101125138 heartbeat IPC: 0.470583 cumulative IPC: 0.564347 (Simulation time: 0 hr 9 min 9 sec) 
*** Reached end of trace: /gpfs/projects/bsc18/MN4/bsc18/romol/ChampSim/traces/qualcomm_srv/srv757_ap.champsimtrace.xz
Heartbeat CPU 0 instructions: 110000002 cycles: 120982996 heartbeat IPC: 0.50358 cumulative IPC: 0.553221 (Simulation time: 0 hr 10 min 23 sec) 
Heartbeat CPU 0 instructions: 120000001 cycles: 140205425 heartbeat IPC: 0.520226 cumulative IPC: 0.548253 (Simulation time: 0 hr 11 min 34 sec) 
Heartbeat CPU 0 instructions: 130000002 cycles: 159490896 heartbeat IPC: 0.518526 cumulative IPC: 0.544352 (Simulation time: 0 hr 12 min 47 sec) 
Heartbeat CPU 0 instructions: 140000000 cycles: 178527237 heartbeat IPC: 0.525311 cumulative IPC: 0.542169 (Simulation time: 0 hr 14 min 0 sec) 
Heartbeat CPU 0 instructions: 150000001 cycles: 190691359 heartbeat IPC: 0.82209 cumulative IPC: 0.56128 (Simulation time: 0 hr 15 min 2 sec) 
Simulation finished CPU 0 instructions: 100000004 cycles: 178164250 cumulative IPC: 0.56128 (Simulation time: 0 hr 15 min 2 sec) 

Simulation complete CPU 0 instructions: 100000004 cycles: 178164250 (Simulation time: 0 hr 15 min 2 sec) 


ChampSim completed all CPUs

Saving instructions large page distribution to /home/bsc/bsc018186/scratch/itp_asplos25_AE/dump/srv757_ap.pdst...
Saving data large page distribution to /home/bsc/bsc018186/scratch/itp_asplos25_AE/dump/srv757_ap.pdst...
=== Simulation ===
CPU 0 runs /gpfs/projects/bsc18/MN4/bsc18/romol/ChampSim/traces/qualcomm_srv/srv757_ap.champsimtrace.xz

Region of Interest Statistics

CPU 0 cumulative IPC: 0.56128 instructions: 100000004 cycles: 178164250
CPU 0 Branch Prediction Accuracy: 80.6511% MPKI: 37.1288 Average ROB Occupancy at Mispredict: 10.2836
Branch type MPKI
BRANCH_DIRECT_JUMP: 0.92759
BRANCH_INDIRECT: 18.2329
BRANCH_CONDITIONAL: 12.4353
BRANCH_DIRECT_CALL: 1.68482
BRANCH_INDIRECT_CALL: 2.63133
BRANCH_RETURN: 1.2169

Instructions large pages: 0
Instructions small pages: 1612
Large page distribution for instructions: 0%

Data large pages: 0
Data small pages: 6177
Large page distribution for data: 0%

cpu0_L1I TOTAL       ACCESS:   31957835  HIT:   25548173  MISS:    6409662  iACCESS:   31957835  iHIT:   25548173  iMISS:    6409662  dACCESS:          0  dHIT:          0  dMISS:          0  itACCESS:          0  itHIT:          0  itMISS:          0  dtACCESS:          0  dtHIT:          0  dtMISS:          0
cpu0_L1I LOAD         ACCESS:    7907834  HIT:    6131106  MISS:    1776728  iACCESS:    7907834  iHIT:    6131106  iMISS:    1776728  dACCESS:          0  dHIT:          0  dMISS:          0  itACCESS:          0  itHIT:          0  itMISS:          0  dtACCESS:          0  dtHIT:          0  dtMISS:          0
cpu0_L1I RFO          ACCESS:          0  HIT:          0  MISS:          0  iACCESS:          0  iHIT:          0  iMISS:          0  dACCESS:          0  dHIT:          0  dMISS:          0  itACCESS:          0  itHIT:          0  itMISS:          0  dtACCESS:          0  dtHIT:          0  dtMISS:          0
cpu0_L1I PREFETCH     ACCESS:   24050001  HIT:   19417067  MISS:    4632934  iACCESS:   24050001  iHIT:   19417067  iMISS:    4632934  dACCESS:          0  dHIT:          0  dMISS:          0  itACCESS:          0  itHIT:          0  itMISS:          0  dtACCESS:          0  dtHIT:          0  dtMISS:          0
cpu0_L1I WRITE        ACCESS:          0  HIT:          0  MISS:          0  iACCESS:          0  iHIT:          0  iMISS:          0  dACCESS:          0  dHIT:          0  dMISS:          0  itACCESS:          0  itHIT:          0  itMISS:          0  dtACCESS:          0  dtHIT:          0  dtMISS:          0
cpu0_L1I TRANSLATION  ACCESS:          0  HIT:          0  MISS:          0  iACCESS:          0  iHIT:          0  iMISS:          0  dACCESS:          0  dHIT:          0  dMISS:          0  itACCESS:          0  itHIT:          0  itMISS:          0  dtACCESS:          0  dtHIT:          0  dtMISS:          0
cpu0_L1I PREFETCH  REQUESTED:   25629952  ISSUED:   25629312  CROSSED:          0  USEFUL:    1518431  USELESS:     539015
cpu0_L1I AVERAGE iMISS LATENCY: 20.2487 cycles
cpu0_L1I AVERAGE dMISS LATENCY: 0 cycles
cpu0_L1I AVERAGE itMISS LATENCY: 0 cycles
cpu0_L1I AVERAGE dtMISS LATENCY: 0 cycles
cpu0_L1I PAGE CROSSINGS (TLB HIT):         0 
cpu0_L1I PAGE CROSSINGS (TLB MISS):         0 
cpu0_L1I AVERAGE MISS LATENCY: 20.2487 cycles
cpu0_ITLB TOTAL       ACCESS:   27306951  HIT:   25867058  MISS:    1439893  iACCESS:   27306951  iHIT:   25867058  iMISS:    1439893  dACCESS:          0  dHIT:          0  dMISS:          0  itACCESS:          0  itHIT:          0  itMISS:          0  dtACCESS:          0  dtHIT:          0  dtMISS:          0
cpu0_ITLB LOAD         ACCESS:   27306951  HIT:   25867058  MISS:    1439893  iACCESS:   27306951  iHIT:   25867058  iMISS:    1439893  dACCESS:          0  dHIT:          0  dMISS:          0  itACCESS:          0  itHIT:          0  itMISS:          0  dtACCESS:          0  dtHIT:          0  dtMISS:          0
cpu0_ITLB RFO          ACCESS:          0  HIT:          0  MISS:          0  iACCESS:          0  iHIT:          0  iMISS:          0  dACCESS:          0  dHIT:          0  dMISS:          0  itACCESS:          0  itHIT:          0  itMISS:          0  dtACCESS:          0  dtHIT:          0  dtMISS:          0
cpu0_ITLB PREFETCH     ACCESS:          0  HIT:          0  MISS:          0  iACCESS:          0  iHIT:          0  iMISS:          0  dACCESS:          0  dHIT:          0  dMISS:          0  itACCESS:          0  itHIT:          0  itMISS:          0  dtACCESS:          0  dtHIT:          0  dtMISS:          0
cpu0_ITLB WRITE        ACCESS:          0  HIT:          0  MISS:          0  iACCESS:          0  iHIT:          0  iMISS:          0  dACCESS:          0  dHIT:          0  dMISS:          0  itACCESS:          0  itHIT:          0  itMISS:          0  dtACCESS:          0  dtHIT:          0  dtMISS:          0
cpu0_ITLB TRANSLATION  ACCESS:          0  HIT:          0  MISS:          0  iACCESS:          0  iHIT:          0  iMISS:          0  dACCESS:          0  dHIT:          0  dMISS:          0  itACCESS:          0  itHIT:          0  itMISS:          0  dtACCESS:          0  dtHIT:          0  dtMISS:          0
cpu0_ITLB PREFETCH  REQUESTED:          0  ISSUED:          0  CROSSED:          0  USEFUL:     250378  USELESS:      47830
cpu0_ITLB AVERAGE iMISS LATENCY: 4.88887 cycles
cpu0_ITLB AVERAGE dMISS LATENCY: 0 cycles
cpu0_ITLB AVERAGE itMISS LATENCY: 0 cycles
cpu0_ITLB AVERAGE dtMISS LATENCY: 0 cycles
cpu0_ITLB PAGE CROSSINGS (TLB HIT):         0 
cpu0_ITLB PAGE CROSSINGS (TLB MISS):         0 
cpu0_ITLB AVERAGE MISS LATENCY: 4.88887 cycles
cpu0_DTLB TOTAL       ACCESS:   31049603  HIT:   29530346  MISS:    1519257  iACCESS:          0  iHIT:          0  iMISS:          0  dACCESS:   31049603  dHIT:   29530346  dMISS:    1519257  itACCESS:          0  itHIT:          0  itMISS:          0  dtACCESS:          0  dtHIT:          0  dtMISS:          0
cpu0_DTLB LOAD         ACCESS:   31049603  HIT:   29530346  MISS:    1519257  iACCESS:          0  iHIT:          0  iMISS:          0  dACCESS:   31049603  dHIT:   29530346  dMISS:    1519257  itACCESS:          0  itHIT:          0  itMISS:          0  dtACCESS:          0  dtHIT:          0  dtMISS:          0
cpu0_DTLB RFO          ACCESS:          0  HIT:          0  MISS:          0  iACCESS:          0  iHIT:          0  iMISS:          0  dACCESS:          0  dHIT:          0  dMISS:          0  itACCESS:          0  itHIT:          0  itMISS:          0  dtACCESS:          0  dtHIT:          0  dtMISS:          0
cpu0_DTLB PREFETCH     ACCESS:          0  HIT:          0  MISS:          0  iACCESS:          0  iHIT:          0  iMISS:          0  dACCESS:          0  dHIT:          0  dMISS:          0  itACCESS:          0  itHIT:          0  itMISS:          0  dtACCESS:          0  dtHIT:          0  dtMISS:          0
cpu0_DTLB WRITE        ACCESS:          0  HIT:          0  MISS:          0  iACCESS:          0  iHIT:          0  iMISS:          0  dACCESS:          0  dHIT:          0  dMISS:          0  itACCESS:          0  itHIT:          0  itMISS:          0  dtACCESS:          0  dtHIT:          0  dtMISS:          0
cpu0_DTLB TRANSLATION  ACCESS:          0  HIT:          0  MISS:          0  iACCESS:          0  iHIT:          0  iMISS:          0  dACCESS:          0  dHIT:          0  dMISS:          0  itACCESS:          0  itHIT:          0  itMISS:          0  dtACCESS:          0  dtHIT:          0  dtMISS:          0
cpu0_DTLB PREFETCH  REQUESTED:          0  ISSUED:          0  CROSSED:          0  USEFUL:          0  USELESS:          0
cpu0_DTLB AVERAGE iMISS LATENCY: 0 cycles
cpu0_DTLB AVERAGE dMISS LATENCY: 13.3539 cycles
cpu0_DTLB AVERAGE itMISS LATENCY: 0 cycles
cpu0_DTLB AVERAGE dtMISS LATENCY: 0 cycles
cpu0_DTLB PAGE CROSSINGS (TLB HIT):         0 
cpu0_DTLB PAGE CROSSINGS (TLB MISS):         0 
cpu0_DTLB AVERAGE MISS LATENCY: 13.3539 cycles
cpu0_STLB TOTAL       ACCESS:    1204986  HIT:    1039350  MISS:     165636  iACCESS:     298220  iHIT:     237894  iMISS:      60326  dACCESS:     906766  dHIT:     801456  dMISS:     105310  itACCESS:          0  itHIT:          0  itMISS:          0  dtACCESS:          0  dtHIT:          0  dtMISS:          0
cpu0_STLB LOAD         ACCESS:    1204986  HIT:    1039350  MISS:     165636  iACCESS:     298220  iHIT:     237894  iMISS:      60326  dACCESS:     906766  dHIT:     801456  dMISS:     105310  itACCESS:          0  itHIT:          0  itMISS:          0  dtACCESS:          0  dtHIT:          0  dtMISS:          0
cpu0_STLB RFO          ACCESS:          0  HIT:          0  MISS:          0  iACCESS:          0  iHIT:          0  iMISS:          0  dACCESS:          0  dHIT:          0  dMISS:          0  itACCESS:          0  itHIT:          0  itMISS:          0  dtACCESS:          0  dtHIT:          0  dtMISS:          0
cpu0_STLB PREFETCH     ACCESS:          0  HIT:          0  MISS:          0  iACCESS:          0  iHIT:          0  iMISS:          0  dACCESS:          0  dHIT:          0  dMISS:          0  itACCESS:          0  itHIT:          0  itMISS:          0  dtACCESS:          0  dtHIT:          0  dtMISS:          0
cpu0_STLB WRITE        ACCESS:          0  HIT:          0  MISS:          0  iACCESS:          0  iHIT:          0  iMISS:          0  dACCESS:          0  dHIT:          0  dMISS:          0  itACCESS:          0  itHIT:          0  itMISS:          0  dtACCESS:          0  dtHIT:          0  dtMISS:          0
cpu0_STLB TRANSLATION  ACCESS:          0  HIT:          0  MISS:          0  iACCESS:          0  iHIT:          0  iMISS:          0  dACCESS:          0  dHIT:          0  dMISS:          0  itACCESS:          0  itHIT:          0  itMISS:          0  dtACCESS:          0  dtHIT:          0  dtMISS:          0
cpu0_STLB PREFETCH  REQUESTED:          0  ISSUED:          0  CROSSED:          0  USEFUL:          0  USELESS:          0
cpu0_STLB AVERAGE iMISS LATENCY: 28.1884 cycles
cpu0_STLB AVERAGE dMISS LATENCY: 78.7957 cycles
cpu0_STLB AVERAGE itMISS LATENCY: 0 cycles
cpu0_STLB AVERAGE dtMISS LATENCY: 0 cycles
cpu0_STLB PAGE CROSSINGS (TLB HIT):         0 
cpu0_STLB PAGE CROSSINGS (TLB MISS):         0 
cpu0_STLB AVERAGE MISS LATENCY: 106.985 cycles
cpu0_L1D TOTAL       ACCESS:   48440095  HIT:   43198996  MISS:    5241099  iACCESS:          0  iHIT:          0  iMISS:          0  dACCESS:   48179565  dHIT:   43181188  dMISS:    4998377  itACCESS:      78986  itHIT:       9159  itMISS:      69827  dtACCESS:     181544  dtHIT:       8649  dtMISS:     172895
cpu0_L1D LOAD         ACCESS:   22990117  HIT:   20979936  MISS:    2010181  iACCESS:          0  iHIT:          0  iMISS:          0  dACCESS:   22990117  dHIT:   20979936  dMISS:    2010181  itACCESS:          0  itHIT:          0  itMISS:          0  dtACCESS:          0  dtHIT:          0  dtMISS:          0
cpu0_L1D RFO          ACCESS:          0  HIT:          0  MISS:          0  iACCESS:          0  iHIT:          0  iMISS:          0  dACCESS:          0  dHIT:          0  dMISS:          0  itACCESS:          0  itHIT:          0  itMISS:          0  dtACCESS:          0  dtHIT:          0  dtMISS:          0
cpu0_L1D PREFETCH     ACCESS:   14943381  HIT:   13049380  MISS:    1894001  iACCESS:          0  iHIT:          0  iMISS:          0  dACCESS:   14943381  dHIT:   13049380  dMISS:    1894001  itACCESS:          0  itHIT:          0  itMISS:          0  dtACCESS:          0  dtHIT:          0  dtMISS:          0
cpu0_L1D WRITE        ACCESS:   10246067  HIT:    9151872  MISS:    1094195  iACCESS:          0  iHIT:          0  iMISS:          0  dACCESS:   10246067  dHIT:    9151872  dMISS:    1094195  itACCESS:          0  itHIT:          0  itMISS:          0  dtACCESS:          0  dtHIT:          0  dtMISS:          0
cpu0_L1D TRANSLATION  ACCESS:     260530  HIT:      17808  MISS:     242722  iACCESS:          0  iHIT:          0  iMISS:          0  dACCESS:          0  dHIT:          0  dMISS:          0  itACCESS:      78986  itHIT:       9159  itMISS:      69827  dtACCESS:     181544  dtHIT:       8649  dtMISS:     172895
cpu0_L1D PREFETCH  REQUESTED:   22990117  ISSUED:   20431993  CROSSED:          0  USEFUL:     334703  USELESS:     685827
cpu0_L1D AVERAGE iMISS LATENCY: 0 cycles
cpu0_L1D AVERAGE dMISS LATENCY: 34.1156 cycles
cpu0_L1D AVERAGE itMISS LATENCY: 0.784312 cycles
cpu0_L1D AVERAGE dtMISS LATENCY: 2.2027 cycles
cpu0_L1D PAGE CROSSINGS (TLB HIT):         0 
cpu0_L1D PAGE CROSSINGS (TLB MISS):         0 
cpu0_L1D AVERAGE MISS LATENCY: 37.1026 cycles
cpu0_L2C TOTAL       ACCESS:    6254768  HIT:    1299182  MISS:    4955586  iACCESS:    2622840  iHIT:     609059  iMISS:    2013781  dACCESS:    3448676  dHIT:     596148  dMISS:    2852528  itACCESS:      55374  itHIT:      32264  itMISS:      23110  dtACCESS:     127878  dtHIT:      61711  dtMISS:      66167
cpu0_L2C LOAD         ACCESS:    1596124  HIT:     233291  MISS:    1362833  iACCESS:     587704  iHIT:      98475  iMISS:     489229  dACCESS:    1008420  dHIT:     134816  dMISS:     873604  itACCESS:          0  itHIT:          0  itMISS:          0  dtACCESS:          0  dtHIT:          0  dtMISS:          0
cpu0_L2C RFO          ACCESS:     211748  HIT:      33449  MISS:     178299  iACCESS:          0  iHIT:          0  iMISS:          0  dACCESS:     211748  dHIT:      33449  dMISS:     178299  itACCESS:          0  itHIT:          0  itMISS:          0  dtACCESS:          0  dtHIT:          0  dtMISS:          0
cpu0_L2C PREFETCH     ACCESS:    3966559  HIT:     804710  MISS:    3161849  iACCESS:    2035136  iHIT:     510584  iMISS:    1524552  dACCESS:    1931423  dHIT:     294126  dMISS:    1637297  itACCESS:          0  itHIT:          0  itMISS:          0  dtACCESS:          0  dtHIT:          0  dtMISS:          0
cpu0_L2C WRITE        ACCESS:     297085  HIT:     133757  MISS:     163328  iACCESS:          0  iHIT:          0  iMISS:          0  dACCESS:     297085  dHIT:     133757  dMISS:     163328  itACCESS:          0  itHIT:          0  itMISS:          0  dtACCESS:          0  dtHIT:          0  dtMISS:          0
cpu0_L2C TRANSLATION  ACCESS:     183252  HIT:      93975  MISS:      89277  iACCESS:          0  iHIT:          0  iMISS:          0  dACCESS:          0  dHIT:          0  dMISS:          0  itACCESS:      55374  itHIT:      32264  itMISS:      23110  dtACCESS:     127878  dtHIT:      61711  dtMISS:      66167
cpu0_L2C PREFETCH  REQUESTED:    1087370  ISSUED:    1087353  CROSSED:          0  USEFUL:     288935  USELESS:     330680
cpu0_L2C AVERAGE iMISS LATENCY: 21.4635 cycles
cpu0_L2C AVERAGE dMISS LATENCY: 42.3534 cycles
cpu0_L2C AVERAGE itMISS LATENCY: 0.724013 cycles
cpu0_L2C AVERAGE dtMISS LATENCY: 2.08297 cycles
cpu0_L2C PAGE CROSSINGS (TLB HIT):         0 
cpu0_L2C PAGE CROSSINGS (TLB MISS):         0 
cpu0_L2C AVERAGE MISS LATENCY: 66.6238 cycles
LLC TOTAL       ACCESS:    4855111  HIT:    3392388  MISS:    1462723  iACCESS:    1960116  iHIT:    1511080  iMISS:     449036  dACCESS:    2805718  dHIT:    1855359  dMISS:     950359  itACCESS:      23110  itHIT:       5505  itMISS:      17605  dtACCESS:      66167  dtHIT:      20444  dtMISS:      45723
LLC LOAD         ACCESS:    1358204  HIT:    1015761  MISS:     342443  iACCESS:     488344  iHIT:     398016  iMISS:      90328  dACCESS:     869860  dHIT:     617745  dMISS:     252115  itACCESS:          0  itHIT:          0  itMISS:          0  dtACCESS:          0  dtHIT:          0  dtMISS:          0
LLC RFO          ACCESS:     178282  HIT:      78169  MISS:     100113  iACCESS:          0  iHIT:          0  iMISS:          0  dACCESS:     178282  dHIT:      78169  dMISS:     100113  itACCESS:          0  itHIT:          0  itMISS:          0  dtACCESS:          0  dtHIT:          0  dtMISS:          0
LLC PREFETCH     ACCESS:    3033154  HIT:    2087870  MISS:     945284  iACCESS:    1471772  iHIT:    1113064  iMISS:     358708  dACCESS:    1561382  dHIT:     974806  dMISS:     586576  itACCESS:          0  itHIT:          0  itMISS:          0  dtACCESS:          0  dtHIT:          0  dtMISS:          0
LLC WRITE        ACCESS:     196194  HIT:     184639  MISS:      11555  iACCESS:          0  iHIT:          0  iMISS:          0  dACCESS:     196194  dHIT:     184639  dMISS:      11555  itACCESS:          0  itHIT:          0  itMISS:          0  dtACCESS:          0  dtHIT:          0  dtMISS:          0
LLC TRANSLATION  ACCESS:      89277  HIT:      25949  MISS:      63328  iACCESS:          0  iHIT:          0  iMISS:          0  dACCESS:          0  dHIT:          0  dMISS:          0  itACCESS:      23110  itHIT:       5505  itMISS:      17605  dtACCESS:      66167  dtHIT:      20444  dtMISS:      45723
LLC PREFETCH  REQUESTED:          0  ISSUED:          0  CROSSED:          0  USEFUL:          0  USELESS:          0
LLC AVERAGE iMISS LATENCY: 46.7606 cycles
LLC AVERAGE dMISS LATENCY: 109.889 cycles
LLC AVERAGE itMISS LATENCY: 2.14161 cycles
LLC AVERAGE dtMISS LATENCY: 6.16931 cycles
LLC PAGE CROSSINGS (TLB HIT):         0 
LLC PAGE CROSSINGS (TLB MISS):         0 
LLC AVERAGE MISS LATENCY: 164.96 cycles

PageTableWalker TOTAL       ACCESS:      86478  
PageTableWalker AVERAGE LATENCY: 4.25626 cycles
PageTableWalker TOTAL LATENCY: 368072 cycles

DRAM Statistics
Channel 0
 RQ ROW_BUFFER_HIT:     424854
  ROW_BUFFER_MISS:    1014050
 AVG DBUS CONGESTED CYCLE:    3.68574
 WQ ROW_BUFFER_HIT:      33074
  ROW_BUFFER_MISS:      52010  FULL:          0

