last_page:0x200000000000000
VMEM_RES_CAP:0x100000
PAGE_SIZE:4096
LOG2_PAGE_SIZE:12
LOG2_PAGE_TABLE_SIZE:9
page_table_levels:5
WARNING: physical memory size is smaller than virtual memory size
FDiP enabled with aggresivity 16

*** ChampSim Multicore Out-of-Order Simulator ***

Warmup Instructions: 50000000
Simulation Instructions: 100000000
Number of CPUs: 1
Small page size: 4096
Large page size: 2097152

CPU 0 Bimodal branch predictor
Basic BTB sets: 1024 ways: 8 indirect buffer size: 4096 RAS size: 64
Instruction page size distrubution: 0
Loading instruction page size distribution from /home/bsc/bsc018186/scratch/itp_asplos25_AE/dump/srv757_ap.pdst
Data page size distrubution: 0
Loading data page size distribution from /home/bsc/bsc018186/scratch/itp_asplos25_AE/dump/srv757_ap.pdst
cpu0_L2C IP-based stride prefetcher
cpu0_L2C is using PTP replacement policy:
	TLB_STRESS_THRESHOLD:0
	PTE_EVICTION_RATIO:0
cpu0_L1D next line prefetcher
CHiRPing...
cpu0_L1I next line prefetcher
Off-chip DRAM Size: 4 GiB Channels: 1 Width: 64-bit Data Rate: 3200 MT/s
Heartbeat CPU 0 instructions: 10000001 cycles: 2500187 heartbeat IPC: 3.99971 cumulative IPC: 3.99971 (Simulation time: 0 hr 0 min 38 sec) 
Heartbeat CPU 0 instructions: 20000000 cycles: 5002728 heartbeat IPC: 3.99594 cumulative IPC: 3.99782 (Simulation time: 0 hr 1 min 16 sec) 
Heartbeat CPU 0 instructions: 30000003 cycles: 7502783 heartbeat IPC: 3.99992 cumulative IPC: 3.99852 (Simulation time: 0 hr 1 min 56 sec) 
Heartbeat CPU 0 instructions: 40000002 cycles: 10003707 heartbeat IPC: 3.99853 cumulative IPC: 3.99852 (Simulation time: 0 hr 2 min 38 sec) 
Heartbeat CPU 0 instructions: 50000000 cycles: 12527229 heartbeat IPC: 3.96272 cumulative IPC: 3.99131 (Simulation time: 0 hr 3 min 17 sec) 
Warmup finished CPU 0 instructions: 50000000 cycles: 12527230 cumulative IPC: 3.99131 (Simulation time: 0 hr 3 min 17 sec) 

Warmup complete CPU 0 instructions: 50000000 cycles: 12527230 (Simulation time: 0 hr 3 min 17 sec) 

Heartbeat CPU 0 instructions: 60000004 cycles: 26853422 heartbeat IPC: 0.698023 cumulative IPC: 0.698023 (Simulation time: 0 hr 4 min 20 sec) 
Heartbeat CPU 0 instructions: 70000000 cycles: 38096457 heartbeat IPC: 0.88944 cumulative IPC: 0.782191 (Simulation time: 0 hr 5 min 16 sec) 
Heartbeat CPU 0 instructions: 80000004 cycles: 58977512 heartbeat IPC: 0.478904 cumulative IPC: 0.645852 (Simulation time: 0 hr 6 min 28 sec) 
Heartbeat CPU 0 instructions: 90000001 cycles: 81550486 heartbeat IPC: 0.443008 cumulative IPC: 0.579515 (Simulation time: 0 hr 7 min 43 sec) 
Heartbeat CPU 0 instructions: 100000001 cycles: 104072398 heartbeat IPC: 0.444013 cumulative IPC: 0.546179 (Simulation time: 0 hr 8 min 58 sec) 
*** Reached end of trace: /gpfs/projects/bsc18/MN4/bsc18/romol/ChampSim/traces/qualcomm_srv/srv757_ap.champsimtrace.xz
Heartbeat CPU 0 instructions: 110000002 cycles: 125545676 heartbeat IPC: 0.465696 cumulative IPC: 0.530887 (Simulation time: 0 hr 10 min 12 sec) 
Heartbeat CPU 0 instructions: 120000001 cycles: 146413360 heartbeat IPC: 0.47921 cumulative IPC: 0.522833 (Simulation time: 0 hr 11 min 23 sec) 
Heartbeat CPU 0 instructions: 130000002 cycles: 168115596 heartbeat IPC: 0.460783 cumulative IPC: 0.514178 (Simulation time: 0 hr 12 min 36 sec) 
Heartbeat CPU 0 instructions: 140000000 cycles: 188868861 heartbeat IPC: 0.481852 cumulative IPC: 0.510373 (Simulation time: 0 hr 13 min 50 sec) 
Heartbeat CPU 0 instructions: 150000001 cycles: 199904085 heartbeat IPC: 0.90619 cumulative IPC: 0.533684 (Simulation time: 0 hr 14 min 47 sec) 
Simulation finished CPU 0 instructions: 100000001 cycles: 187376856 cumulative IPC: 0.533684 (Simulation time: 0 hr 14 min 47 sec) 

Simulation complete CPU 0 instructions: 100000001 cycles: 187376856 (Simulation time: 0 hr 14 min 47 sec) 


ChampSim completed all CPUs

Saving instructions large page distribution to /home/bsc/bsc018186/scratch/itp_asplos25_AE/dump/srv757_ap.pdst...
Saving data large page distribution to /home/bsc/bsc018186/scratch/itp_asplos25_AE/dump/srv757_ap.pdst...
=== Simulation ===
CPU 0 runs /gpfs/projects/bsc18/MN4/bsc18/romol/ChampSim/traces/qualcomm_srv/srv757_ap.champsimtrace.xz

Region of Interest Statistics

CPU 0 cumulative IPC: 0.533684 instructions: 100000001 cycles: 187376856
CPU 0 Branch Prediction Accuracy: 80.6511% MPKI: 37.1288 Average ROB Occupancy at Mispredict: 10.3761
Branch type MPKI
BRANCH_DIRECT_JUMP: 0.92759
BRANCH_INDIRECT: 18.2329
BRANCH_CONDITIONAL: 12.4353
BRANCH_DIRECT_CALL: 1.68482
BRANCH_INDIRECT_CALL: 2.63133
BRANCH_RETURN: 1.2169

Instructions large pages: 0
Instructions small pages: 1612
Large page distribution for instructions: 0%

Data large pages: 0
Data small pages: 6177
Large page distribution for data: 0%

cpu0_L1I TOTAL       ACCESS:   31723931  HIT:   25601751  MISS:    6122180  iACCESS:   31723931  iHIT:   25601751  iMISS:    6122180  dACCESS:          0  dHIT:          0  dMISS:          0  itACCESS:          0  itHIT:          0  itMISS:          0  dtACCESS:          0  dtHIT:          0  dtMISS:          0
cpu0_L1I LOAD         ACCESS:    7849590  HIT:    6148351  MISS:    1701239  iACCESS:    7849590  iHIT:    6148351  iMISS:    1701239  dACCESS:          0  dHIT:          0  dMISS:          0  itACCESS:          0  itHIT:          0  itMISS:          0  dtACCESS:          0  dtHIT:          0  dtMISS:          0
cpu0_L1I RFO          ACCESS:          0  HIT:          0  MISS:          0  iACCESS:          0  iHIT:          0  iMISS:          0  dACCESS:          0  dHIT:          0  dMISS:          0  itACCESS:          0  itHIT:          0  itMISS:          0  dtACCESS:          0  dtHIT:          0  dtMISS:          0
cpu0_L1I PREFETCH     ACCESS:   23874341  HIT:   19453400  MISS:    4420941  iACCESS:   23874341  iHIT:   19453400  iMISS:    4420941  dACCESS:          0  dHIT:          0  dMISS:          0  itACCESS:          0  itHIT:          0  itMISS:          0  dtACCESS:          0  dtHIT:          0  dtMISS:          0
cpu0_L1I WRITE        ACCESS:          0  HIT:          0  MISS:          0  iACCESS:          0  iHIT:          0  iMISS:          0  dACCESS:          0  dHIT:          0  dMISS:          0  itACCESS:          0  itHIT:          0  itMISS:          0  dtACCESS:          0  dtHIT:          0  dtMISS:          0
cpu0_L1I TRANSLATION  ACCESS:          0  HIT:          0  MISS:          0  iACCESS:          0  iHIT:          0  iMISS:          0  dACCESS:          0  dHIT:          0  dMISS:          0  itACCESS:          0  itHIT:          0  itMISS:          0  dtACCESS:          0  dtHIT:          0  dtMISS:          0
cpu0_L1I PREFETCH  REQUESTED:   25572971  ISSUED:   25572834  CROSSED:          0  USEFUL:    1518132  USELESS:     539334
cpu0_L1I AVERAGE iMISS LATENCY: 20.8099 cycles
cpu0_L1I AVERAGE dMISS LATENCY: 0 cycles
cpu0_L1I AVERAGE itMISS LATENCY: 0 cycles
cpu0_L1I AVERAGE dtMISS LATENCY: 0 cycles
cpu0_L1I PAGE CROSSINGS (TLB HIT):         0 
cpu0_L1I PAGE CROSSINGS (TLB MISS):         0 
cpu0_L1I AVERAGE MISS LATENCY: 20.8099 cycles
cpu0_ITLB TOTAL       ACCESS:   27256393  HIT:   25816559  MISS:    1439834  iACCESS:   27256393  iHIT:   25816559  iMISS:    1439834  dACCESS:          0  dHIT:          0  dMISS:          0  itACCESS:          0  itHIT:          0  itMISS:          0  dtACCESS:          0  dtHIT:          0  dtMISS:          0
cpu0_ITLB LOAD         ACCESS:   27256393  HIT:   25816559  MISS:    1439834  iACCESS:   27256393  iHIT:   25816559  iMISS:    1439834  dACCESS:          0  dHIT:          0  dMISS:          0  itACCESS:          0  itHIT:          0  itMISS:          0  dtACCESS:          0  dtHIT:          0  dtMISS:          0
cpu0_ITLB RFO          ACCESS:          0  HIT:          0  MISS:          0  iACCESS:          0  iHIT:          0  iMISS:          0  dACCESS:          0  dHIT:          0  dMISS:          0  itACCESS:          0  itHIT:          0  itMISS:          0  dtACCESS:          0  dtHIT:          0  dtMISS:          0
cpu0_ITLB PREFETCH     ACCESS:          0  HIT:          0  MISS:          0  iACCESS:          0  iHIT:          0  iMISS:          0  dACCESS:          0  dHIT:          0  dMISS:          0  itACCESS:          0  itHIT:          0  itMISS:          0  dtACCESS:          0  dtHIT:          0  dtMISS:          0
cpu0_ITLB WRITE        ACCESS:          0  HIT:          0  MISS:          0  iACCESS:          0  iHIT:          0  iMISS:          0  dACCESS:          0  dHIT:          0  dMISS:          0  itACCESS:          0  itHIT:          0  itMISS:          0  dtACCESS:          0  dtHIT:          0  dtMISS:          0
cpu0_ITLB TRANSLATION  ACCESS:          0  HIT:          0  MISS:          0  iACCESS:          0  iHIT:          0  iMISS:          0  dACCESS:          0  dHIT:          0  dMISS:          0  itACCESS:          0  itHIT:          0  itMISS:          0  dtACCESS:          0  dtHIT:          0  dtMISS:          0
cpu0_ITLB PREFETCH  REQUESTED:          0  ISSUED:          0  CROSSED:          0  USEFUL:     250133  USELESS:      48066
cpu0_ITLB AVERAGE iMISS LATENCY: 6.72981 cycles
cpu0_ITLB AVERAGE dMISS LATENCY: 0 cycles
cpu0_ITLB AVERAGE itMISS LATENCY: 0 cycles
cpu0_ITLB AVERAGE dtMISS LATENCY: 0 cycles
cpu0_ITLB PAGE CROSSINGS (TLB HIT):         0 
cpu0_ITLB PAGE CROSSINGS (TLB MISS):         0 
cpu0_ITLB AVERAGE MISS LATENCY: 6.72981 cycles
cpu0_DTLB TOTAL       ACCESS:   31043747  HIT:   29516693  MISS:    1527054  iACCESS:          0  iHIT:          0  iMISS:          0  dACCESS:   31043747  dHIT:   29516693  dMISS:    1527054  itACCESS:          0  itHIT:          0  itMISS:          0  dtACCESS:          0  dtHIT:          0  dtMISS:          0
cpu0_DTLB LOAD         ACCESS:   31043747  HIT:   29516693  MISS:    1527054  iACCESS:          0  iHIT:          0  iMISS:          0  dACCESS:   31043747  dHIT:   29516693  dMISS:    1527054  itACCESS:          0  itHIT:          0  itMISS:          0  dtACCESS:          0  dtHIT:          0  dtMISS:          0
cpu0_DTLB RFO          ACCESS:          0  HIT:          0  MISS:          0  iACCESS:          0  iHIT:          0  iMISS:          0  dACCESS:          0  dHIT:          0  dMISS:          0  itACCESS:          0  itHIT:          0  itMISS:          0  dtACCESS:          0  dtHIT:          0  dtMISS:          0
cpu0_DTLB PREFETCH     ACCESS:          0  HIT:          0  MISS:          0  iACCESS:          0  iHIT:          0  iMISS:          0  dACCESS:          0  dHIT:          0  dMISS:          0  itACCESS:          0  itHIT:          0  itMISS:          0  dtACCESS:          0  dtHIT:          0  dtMISS:          0
cpu0_DTLB WRITE        ACCESS:          0  HIT:          0  MISS:          0  iACCESS:          0  iHIT:          0  iMISS:          0  dACCESS:          0  dHIT:          0  dMISS:          0  itACCESS:          0  itHIT:          0  itMISS:          0  dtACCESS:          0  dtHIT:          0  dtMISS:          0
cpu0_DTLB TRANSLATION  ACCESS:          0  HIT:          0  MISS:          0  iACCESS:          0  iHIT:          0  iMISS:          0  dACCESS:          0  dHIT:          0  dMISS:          0  itACCESS:          0  itHIT:          0  itMISS:          0  dtACCESS:          0  dtHIT:          0  dtMISS:          0
cpu0_DTLB PREFETCH  REQUESTED:          0  ISSUED:          0  CROSSED:          0  USEFUL:          0  USELESS:          0
cpu0_DTLB AVERAGE iMISS LATENCY: 0 cycles
cpu0_DTLB AVERAGE dMISS LATENCY: 17.5174 cycles
cpu0_DTLB AVERAGE itMISS LATENCY: 0 cycles
cpu0_DTLB AVERAGE dtMISS LATENCY: 0 cycles
cpu0_DTLB PAGE CROSSINGS (TLB HIT):         0 
cpu0_DTLB PAGE CROSSINGS (TLB MISS):         0 
cpu0_DTLB AVERAGE MISS LATENCY: 17.5174 cycles
cpu0_STLB TOTAL       ACCESS:    1205055  HIT:    1039427  MISS:     165628  iACCESS:     298203  iHIT:     237874  iMISS:      60329  dACCESS:     906852  dHIT:     801553  dMISS:     105299  itACCESS:          0  itHIT:          0  itMISS:          0  dtACCESS:          0  dtHIT:          0  dtMISS:          0
cpu0_STLB LOAD         ACCESS:    1205055  HIT:    1039427  MISS:     165628  iACCESS:     298203  iHIT:     237874  iMISS:      60329  dACCESS:     906852  dHIT:     801553  dMISS:     105299  itACCESS:          0  itHIT:          0  itMISS:          0  dtACCESS:          0  dtHIT:          0  dtMISS:          0
cpu0_STLB RFO          ACCESS:          0  HIT:          0  MISS:          0  iACCESS:          0  iHIT:          0  iMISS:          0  dACCESS:          0  dHIT:          0  dMISS:          0  itACCESS:          0  itHIT:          0  itMISS:          0  dtACCESS:          0  dtHIT:          0  dtMISS:          0
cpu0_STLB PREFETCH     ACCESS:          0  HIT:          0  MISS:          0  iACCESS:          0  iHIT:          0  iMISS:          0  dACCESS:          0  dHIT:          0  dMISS:          0  itACCESS:          0  itHIT:          0  itMISS:          0  dtACCESS:          0  dtHIT:          0  dtMISS:          0
cpu0_STLB WRITE        ACCESS:          0  HIT:          0  MISS:          0  iACCESS:          0  iHIT:          0  iMISS:          0  dACCESS:          0  dHIT:          0  dMISS:          0  itACCESS:          0  itHIT:          0  itMISS:          0  dtACCESS:          0  dtHIT:          0  dtMISS:          0
cpu0_STLB TRANSLATION  ACCESS:          0  HIT:          0  MISS:          0  iACCESS:          0  iHIT:          0  iMISS:          0  dACCESS:          0  dHIT:          0  dMISS:          0  itACCESS:          0  itHIT:          0  itMISS:          0  dtACCESS:          0  dtHIT:          0  dtMISS:          0
cpu0_STLB PREFETCH  REQUESTED:          0  ISSUED:          0  CROSSED:          0  USEFUL:          0  USELESS:          0
cpu0_STLB AVERAGE iMISS LATENCY: 44.1849 cycles
cpu0_STLB AVERAGE dMISS LATENCY: 117.773 cycles
cpu0_STLB AVERAGE itMISS LATENCY: 0 cycles
cpu0_STLB AVERAGE dtMISS LATENCY: 0 cycles
cpu0_STLB PAGE CROSSINGS (TLB HIT):         0 
cpu0_STLB PAGE CROSSINGS (TLB MISS):         0 
cpu0_STLB AVERAGE MISS LATENCY: 161.958 cycles
cpu0_L1D TOTAL       ACCESS:   48456221  HIT:   43207009  MISS:    5249212  iACCESS:          0  iHIT:          0  iMISS:          0  dACCESS:   48199740  dHIT:   43189200  dMISS:    5010540  itACCESS:      80045  itHIT:       9149  itMISS:      70896  dtACCESS:     176436  dtHIT:       8660  dtMISS:     167776
cpu0_L1D LOAD         ACCESS:   22999296  HIT:   20985192  MISS:    2014104  iACCESS:          0  iHIT:          0  iMISS:          0  dACCESS:   22999296  dHIT:   20985192  dMISS:    2014104  itACCESS:          0  itHIT:          0  itMISS:          0  dtACCESS:          0  dtHIT:          0  dtMISS:          0
cpu0_L1D RFO          ACCESS:          0  HIT:          0  MISS:          0  iACCESS:          0  iHIT:          0  iMISS:          0  dACCESS:          0  dHIT:          0  dMISS:          0  itACCESS:          0  itHIT:          0  itMISS:          0  dtACCESS:          0  dtHIT:          0  dtMISS:          0
cpu0_L1D PREFETCH     ACCESS:   14946758  HIT:   13054394  MISS:    1892364  iACCESS:          0  iHIT:          0  iMISS:          0  dACCESS:   14946758  dHIT:   13054394  dMISS:    1892364  itACCESS:          0  itHIT:          0  itMISS:          0  dtACCESS:          0  dtHIT:          0  dtMISS:          0
cpu0_L1D WRITE        ACCESS:   10253686  HIT:    9149614  MISS:    1104072  iACCESS:          0  iHIT:          0  iMISS:          0  dACCESS:   10253686  dHIT:    9149614  dMISS:    1104072  itACCESS:          0  itHIT:          0  itMISS:          0  dtACCESS:          0  dtHIT:          0  dtMISS:          0
cpu0_L1D TRANSLATION  ACCESS:     256481  HIT:      17809  MISS:     238672  iACCESS:          0  iHIT:          0  iMISS:          0  dACCESS:          0  dHIT:          0  dMISS:          0  itACCESS:      80045  itHIT:       9149  itMISS:      70896  dtACCESS:     176436  dtHIT:       8660  dtMISS:     167776
cpu0_L1D PREFETCH  REQUESTED:   22999296  ISSUED:   20425861  CROSSED:          0  USEFUL:     334541  USELESS:     686267
cpu0_L1D AVERAGE iMISS LATENCY: 0 cycles
cpu0_L1D AVERAGE dMISS LATENCY: 34.4224 cycles
cpu0_L1D AVERAGE itMISS LATENCY: 1.28754 cycles
cpu0_L1D AVERAGE dtMISS LATENCY: 3.42876 cycles
cpu0_L1D PAGE CROSSINGS (TLB HIT):         0 
cpu0_L1D PAGE CROSSINGS (TLB MISS):         0 
cpu0_L1D AVERAGE MISS LATENCY: 39.1387 cycles
cpu0_L2C TOTAL       ACCESS:    6255519  HIT:    2554178  MISS:    3701341  iACCESS:    2622935  iHIT:    1264137  iMISS:    1358798  dACCESS:    3449369  dHIT:    1237784  dMISS:    2211585  itACCESS:      55389  itHIT:      17412  itMISS:      37977  dtACCESS:     127826  dtHIT:      34845  dtMISS:      92981
cpu0_L2C LOAD         ACCESS:    1597155  HIT:     629699  MISS:     967456  iACCESS:     588315  iHIT:     281254  iMISS:     307061  dACCESS:    1008840  dHIT:     348445  dMISS:     660395  itACCESS:          0  itHIT:          0  itMISS:          0  dtACCESS:          0  dtHIT:          0  dtMISS:          0
cpu0_L2C RFO          ACCESS:     211568  HIT:      43892  MISS:     167676  iACCESS:          0  iHIT:          0  iMISS:          0  dACCESS:     211568  dHIT:      43892  dMISS:     167676  itACCESS:          0  itHIT:          0  itMISS:          0  dtACCESS:          0  dtHIT:          0  dtMISS:          0
cpu0_L2C PREFETCH     ACCESS:    3966274  HIT:    1621050  MISS:    2345224  iACCESS:    2034620  iHIT:     982883  iMISS:    1051737  dACCESS:    1931654  dHIT:     638167  dMISS:    1293487  itACCESS:          0  itHIT:          0  itMISS:          0  dtACCESS:          0  dtHIT:          0  dtMISS:          0
cpu0_L2C WRITE        ACCESS:     297307  HIT:     207280  MISS:      90027  iACCESS:          0  iHIT:          0  iMISS:          0  dACCESS:     297307  dHIT:     207280  dMISS:      90027  itACCESS:          0  itHIT:          0  itMISS:          0  dtACCESS:          0  dtHIT:          0  dtMISS:          0
cpu0_L2C TRANSLATION  ACCESS:     183215  HIT:      52257  MISS:     130958  iACCESS:          0  iHIT:          0  iMISS:          0  dACCESS:          0  dHIT:          0  dMISS:          0  itACCESS:      55389  itHIT:      17412  itMISS:      37977  dtACCESS:     127826  dtHIT:      34845  dtMISS:      92981
cpu0_L2C PREFETCH  REQUESTED:    1085992  ISSUED:    1085465  CROSSED:          0  USEFUL:     256459  USELESS:     253264
cpu0_L2C AVERAGE iMISS LATENCY: 28.2584 cycles
cpu0_L2C AVERAGE dMISS LATENCY: 57.9045 cycles
cpu0_L2C AVERAGE itMISS LATENCY: 1.68065 cycles
cpu0_L2C AVERAGE dtMISS LATENCY: 4.52503 cycles
cpu0_L2C PAGE CROSSINGS (TLB HIT):         0 
cpu0_L2C PAGE CROSSINGS (TLB MISS):         0 
cpu0_L2C AVERAGE MISS LATENCY: 92.3685 cycles
LLC TOTAL       ACCESS:    3679770  HIT:    2044619  MISS:    1635151  iACCESS:    1304593  iHIT:     794293  iMISS:     510300  dACCESS:    2244219  dHIT:    1226727  dMISS:    1017492  itACCESS:      37977  itHIT:       7159  itMISS:      30818  dtACCESS:      92981  dtHIT:      16440  dtMISS:      76541
LLC LOAD         ACCESS:     963103  HIT:     581645  MISS:     381458  iACCESS:     306217  iHIT:     201785  iMISS:     104432  dACCESS:     656886  dHIT:     379860  dMISS:     277026  itACCESS:          0  itHIT:          0  itMISS:          0  dtACCESS:          0  dtHIT:          0  dtMISS:          0
LLC RFO          ACCESS:     167666  HIT:      62598  MISS:     105068  iACCESS:          0  iHIT:          0  iMISS:          0  dACCESS:     167666  dHIT:      62598  dMISS:     105068  itACCESS:          0  itHIT:          0  itMISS:          0  dtACCESS:          0  dtHIT:          0  dtMISS:          0
LLC PREFETCH     ACCESS:    2215390  HIT:    1177767  MISS:    1037623  iACCESS:     998376  iHIT:     592508  iMISS:     405868  dACCESS:    1217014  dHIT:     585259  dMISS:     631755  itACCESS:          0  itHIT:          0  itMISS:          0  dtACCESS:          0  dtHIT:          0  dtMISS:          0
LLC WRITE        ACCESS:     202653  HIT:     199010  MISS:       3643  iACCESS:          0  iHIT:          0  iMISS:          0  dACCESS:     202653  dHIT:     199010  dMISS:       3643  itACCESS:          0  itHIT:          0  itMISS:          0  dtACCESS:          0  dtHIT:          0  dtMISS:          0
LLC TRANSLATION  ACCESS:     130958  HIT:      23599  MISS:     107359  iACCESS:          0  iHIT:          0  iMISS:          0  dACCESS:          0  dHIT:          0  dMISS:          0  itACCESS:      37977  itHIT:       7159  itMISS:      30818  dtACCESS:      92981  dtHIT:      16440  dtMISS:      76541
LLC PREFETCH  REQUESTED:          0  ISSUED:          0  CROSSED:          0  USEFUL:          0  USELESS:          0
LLC AVERAGE iMISS LATENCY: 48.4283 cycles
LLC AVERAGE dMISS LATENCY: 107.681 cycles
LLC AVERAGE itMISS LATENCY: 3.34589 cycles
LLC AVERAGE dtMISS LATENCY: 9.1221 cycles
LLC PAGE CROSSINGS (TLB HIT):         0 
LLC PAGE CROSSINGS (TLB MISS):         0 
LLC AVERAGE MISS LATENCY: 168.577 cycles

PageTableWalker TOTAL       ACCESS:      86478  
PageTableWalker AVERAGE LATENCY: 4.01101 cycles
PageTableWalker TOTAL LATENCY: 346864 cycles

DRAM Statistics
Channel 0
 RQ ROW_BUFFER_HIT:     438758
  ROW_BUFFER_MISS:    1180020
 AVG DBUS CONGESTED CYCLE:    3.68493
 WQ ROW_BUFFER_HIT:      37156
  ROW_BUFFER_MISS:      58100  FULL:          0

