last_page:0x200000000000000
VMEM_RES_CAP:0x100000
PAGE_SIZE:4096
LOG2_PAGE_SIZE:12
LOG2_PAGE_TABLE_SIZE:9
page_table_levels:5
WARNING: physical memory size is smaller than virtual memory size
FDiP enabled with aggresivity 16

*** ChampSim Multicore Out-of-Order Simulator ***

Warmup Instructions: 50000000
Simulation Instructions: 100000000
Number of CPUs: 1
Small page size: 4096
Large page size: 2097152

CPU 0 Bimodal branch predictor
Basic BTB sets: 1024 ways: 8 indirect buffer size: 4096 RAS size: 64
Instruction page size distrubution: 0
Loading instruction page size distribution from /home/bsc/bsc018186/scratch/itp_asplos25_AE/dump/srv715_ap.pdst
Data page size distrubution: 0
Loading data page size distribution from /home/bsc/bsc018186/scratch/itp_asplos25_AE/dump/srv715_ap.pdst
cpu0_L2C IP-based stride prefetcher
cpu0_L2C is using PTP replacement policy:
	TLB_STRESS_THRESHOLD:0
	PTE_EVICTION_RATIO:0
cpu0_L1D next line prefetcher
cpu0_STLB using iTP with max lru@8
cpu0_STLB using iTP with instr@0 and data@2
Init sat counter with 3 bits (max:50).
cpu0_L1I next line prefetcher
Off-chip DRAM Size: 4 GiB Channels: 1 Width: 64-bit Data Rate: 3200 MT/s
Heartbeat CPU 0 instructions: 10000002 cycles: 2500774 heartbeat IPC: 3.99877 cumulative IPC: 3.99877 (Simulation time: 0 hr 0 min 44 sec) 
Heartbeat CPU 0 instructions: 20000001 cycles: 5002577 heartbeat IPC: 3.99712 cumulative IPC: 3.99794 (Simulation time: 0 hr 1 min 29 sec) 
Heartbeat CPU 0 instructions: 30000001 cycles: 7502698 heartbeat IPC: 3.99981 cumulative IPC: 3.99857 (Simulation time: 0 hr 2 min 12 sec) 
Heartbeat CPU 0 instructions: 40000000 cycles: 10002713 heartbeat IPC: 3.99998 cumulative IPC: 3.99892 (Simulation time: 0 hr 2 min 58 sec) 
Heartbeat CPU 0 instructions: 50000000 cycles: 12502805 heartbeat IPC: 3.99986 cumulative IPC: 3.99911 (Simulation time: 0 hr 3 min 45 sec) 
Warmup finished CPU 0 instructions: 50000000 cycles: 12502806 cumulative IPC: 3.99911 (Simulation time: 0 hr 3 min 45 sec) 

Warmup complete CPU 0 instructions: 50000000 cycles: 12502806 (Simulation time: 0 hr 3 min 45 sec) 

Heartbeat CPU 0 instructions: 60000002 cycles: 33798592 heartbeat IPC: 0.469577 cumulative IPC: 0.469577 (Simulation time: 0 hr 5 min 8 sec) 
Heartbeat CPU 0 instructions: 70000000 cycles: 54590831 heartbeat IPC: 0.480949 cumulative IPC: 0.475195 (Simulation time: 0 hr 6 min 26 sec) 
Heartbeat CPU 0 instructions: 80000000 cycles: 75168452 heartbeat IPC: 0.485965 cumulative IPC: 0.478732 (Simulation time: 0 hr 7 min 48 sec) 
Heartbeat CPU 0 instructions: 90000001 cycles: 80935953 heartbeat IPC: 1.73386 cumulative IPC: 0.584513 (Simulation time: 0 hr 8 min 48 sec) 
Heartbeat CPU 0 instructions: 100000000 cycles: 102228510 heartbeat IPC: 0.469648 cumulative IPC: 0.557254 (Simulation time: 0 hr 10 min 10 sec) 
*** Reached end of trace: /gpfs/projects/bsc18/MN4/bsc18/romol/ChampSim/traces/qualcomm_srv/srv715_ap.champsimtrace.xz
Heartbeat CPU 0 instructions: 110000004 cycles: 124684330 heartbeat IPC: 0.44532 cumulative IPC: 0.534848 (Simulation time: 0 hr 11 min 31 sec) 
Heartbeat CPU 0 instructions: 120000001 cycles: 146423988 heartbeat IPC: 0.459989 cumulative IPC: 0.522696 (Simulation time: 0 hr 12 min 54 sec) 
Heartbeat CPU 0 instructions: 130000001 cycles: 169244885 heartbeat IPC: 0.438195 cumulative IPC: 0.510393 (Simulation time: 0 hr 14 min 16 sec) 
Heartbeat CPU 0 instructions: 140000003 cycles: 191417955 heartbeat IPC: 0.450998 cumulative IPC: 0.503032 (Simulation time: 0 hr 15 min 32 sec) 
Heartbeat CPU 0 instructions: 150000001 cycles: 214280741 heartbeat IPC: 0.437392 cumulative IPC: 0.495595 (Simulation time: 0 hr 16 min 53 sec) 
Simulation finished CPU 0 instructions: 100000001 cycles: 201777936 cumulative IPC: 0.495595 (Simulation time: 0 hr 16 min 53 sec) 

Simulation complete CPU 0 instructions: 100000001 cycles: 201777936 (Simulation time: 0 hr 16 min 53 sec) 


ChampSim completed all CPUs

Saving instructions large page distribution to /home/bsc/bsc018186/scratch/itp_asplos25_AE/dump/srv715_ap.pdst...
Saving data large page distribution to /home/bsc/bsc018186/scratch/itp_asplos25_AE/dump/srv715_ap.pdst...
=== Simulation ===
CPU 0 runs /gpfs/projects/bsc18/MN4/bsc18/romol/ChampSim/traces/qualcomm_srv/srv715_ap.champsimtrace.xz

Region of Interest Statistics

CPU 0 cumulative IPC: 0.495595 instructions: 100000001 cycles: 201777936
CPU 0 Branch Prediction Accuracy: 82.4813% MPKI: 33.9338 Average ROB Occupancy at Mispredict: 11.356
Branch type MPKI
BRANCH_DIRECT_JUMP: 1.25524
BRANCH_INDIRECT: 17.3725
BRANCH_CONDITIONAL: 10.6191
BRANCH_DIRECT_CALL: 2.32746
BRANCH_INDIRECT_CALL: 0.69896
BRANCH_RETURN: 1.66061

Instructions large pages: 0
Instructions small pages: 1202
Large page distribution for instructions: 0%

Data large pages: 0
Data small pages: 5167
Large page distribution for data: 0%

cpu0_L1I TOTAL       ACCESS:   35069917  HIT:   27866322  MISS:    7203595  iACCESS:   35069917  iHIT:   27866322  iMISS:    7203595  dACCESS:          0  dHIT:          0  dMISS:          0  itACCESS:          0  itHIT:          0  itMISS:          0  dtACCESS:          0  dtHIT:          0  dtMISS:          0
cpu0_L1I LOAD         ACCESS:    9368148  HIT:    7375318  MISS:    1992830  iACCESS:    9368148  iHIT:    7375318  iMISS:    1992830  dACCESS:          0  dHIT:          0  dMISS:          0  itACCESS:          0  itHIT:          0  itMISS:          0  dtACCESS:          0  dtHIT:          0  dtMISS:          0
cpu0_L1I RFO          ACCESS:          0  HIT:          0  MISS:          0  iACCESS:          0  iHIT:          0  iMISS:          0  dACCESS:          0  dHIT:          0  dMISS:          0  itACCESS:          0  itHIT:          0  itMISS:          0  dtACCESS:          0  dtHIT:          0  dtMISS:          0
cpu0_L1I PREFETCH     ACCESS:   25701769  HIT:   20491004  MISS:    5210765  iACCESS:   25701769  iHIT:   20491004  iMISS:    5210765  dACCESS:          0  dHIT:          0  dMISS:          0  itACCESS:          0  itHIT:          0  itMISS:          0  dtACCESS:          0  dtHIT:          0  dtMISS:          0
cpu0_L1I WRITE        ACCESS:          0  HIT:          0  MISS:          0  iACCESS:          0  iHIT:          0  iMISS:          0  dACCESS:          0  dHIT:          0  dMISS:          0  itACCESS:          0  itHIT:          0  itMISS:          0  dtACCESS:          0  dtHIT:          0  dtMISS:          0
cpu0_L1I TRANSLATION  ACCESS:          0  HIT:          0  MISS:          0  iACCESS:          0  iHIT:          0  iMISS:          0  dACCESS:          0  dHIT:          0  dMISS:          0  itACCESS:          0  itHIT:          0  itMISS:          0  dtACCESS:          0  dtHIT:          0  dtMISS:          0
cpu0_L1I PREFETCH  REQUESTED:   27915077  ISSUED:   27915077  CROSSED:          0  USEFUL:    1799558  USELESS:     611376
cpu0_L1I AVERAGE iMISS LATENCY: 20.7218 cycles
cpu0_L1I AVERAGE dMISS LATENCY: 0 cycles
cpu0_L1I AVERAGE itMISS LATENCY: 0 cycles
cpu0_L1I AVERAGE dtMISS LATENCY: 0 cycles
cpu0_L1I PAGE CROSSINGS (TLB HIT):         0 
cpu0_L1I PAGE CROSSINGS (TLB MISS):         0 
cpu0_L1I AVERAGE MISS LATENCY: 20.7218 cycles
cpu0_ITLB TOTAL       ACCESS:   29610512  HIT:   27842131  MISS:    1768381  iACCESS:   29610512  iHIT:   27842131  iMISS:    1768381  dACCESS:          0  dHIT:          0  dMISS:          0  itACCESS:          0  itHIT:          0  itMISS:          0  dtACCESS:          0  dtHIT:          0  dtMISS:          0
cpu0_ITLB LOAD         ACCESS:   29610512  HIT:   27842131  MISS:    1768381  iACCESS:   29610512  iHIT:   27842131  iMISS:    1768381  dACCESS:          0  dHIT:          0  dMISS:          0  itACCESS:          0  itHIT:          0  itMISS:          0  dtACCESS:          0  dtHIT:          0  dtMISS:          0
cpu0_ITLB RFO          ACCESS:          0  HIT:          0  MISS:          0  iACCESS:          0  iHIT:          0  iMISS:          0  dACCESS:          0  dHIT:          0  dMISS:          0  itACCESS:          0  itHIT:          0  itMISS:          0  dtACCESS:          0  dtHIT:          0  dtMISS:          0
cpu0_ITLB PREFETCH     ACCESS:          0  HIT:          0  MISS:          0  iACCESS:          0  iHIT:          0  iMISS:          0  dACCESS:          0  dHIT:          0  dMISS:          0  itACCESS:          0  itHIT:          0  itMISS:          0  dtACCESS:          0  dtHIT:          0  dtMISS:          0
cpu0_ITLB WRITE        ACCESS:          0  HIT:          0  MISS:          0  iACCESS:          0  iHIT:          0  iMISS:          0  dACCESS:          0  dHIT:          0  dMISS:          0  itACCESS:          0  itHIT:          0  itMISS:          0  dtACCESS:          0  dtHIT:          0  dtMISS:          0
cpu0_ITLB TRANSLATION  ACCESS:          0  HIT:          0  MISS:          0  iACCESS:          0  iHIT:          0  iMISS:          0  dACCESS:          0  dHIT:          0  dMISS:          0  itACCESS:          0  itHIT:          0  itMISS:          0  dtACCESS:          0  dtHIT:          0  dtMISS:          0
cpu0_ITLB PREFETCH  REQUESTED:          0  ISSUED:          0  CROSSED:          0  USEFUL:     300679  USELESS:      60491
cpu0_ITLB AVERAGE iMISS LATENCY: 4.50805 cycles
cpu0_ITLB AVERAGE dMISS LATENCY: 0 cycles
cpu0_ITLB AVERAGE itMISS LATENCY: 0 cycles
cpu0_ITLB AVERAGE dtMISS LATENCY: 0 cycles
cpu0_ITLB PAGE CROSSINGS (TLB HIT):         0 
cpu0_ITLB PAGE CROSSINGS (TLB MISS):         0 
cpu0_ITLB AVERAGE MISS LATENCY: 4.50805 cycles
cpu0_DTLB TOTAL       ACCESS:   29910735  HIT:   25608175  MISS:    4302560  iACCESS:          0  iHIT:          0  iMISS:          0  dACCESS:   29910735  dHIT:   25608175  dMISS:    4302560  itACCESS:          0  itHIT:          0  itMISS:          0  dtACCESS:          0  dtHIT:          0  dtMISS:          0
cpu0_DTLB LOAD         ACCESS:   29910735  HIT:   25608175  MISS:    4302560  iACCESS:          0  iHIT:          0  iMISS:          0  dACCESS:   29910735  dHIT:   25608175  dMISS:    4302560  itACCESS:          0  itHIT:          0  itMISS:          0  dtACCESS:          0  dtHIT:          0  dtMISS:          0
cpu0_DTLB RFO          ACCESS:          0  HIT:          0  MISS:          0  iACCESS:          0  iHIT:          0  iMISS:          0  dACCESS:          0  dHIT:          0  dMISS:          0  itACCESS:          0  itHIT:          0  itMISS:          0  dtACCESS:          0  dtHIT:          0  dtMISS:          0
cpu0_DTLB PREFETCH     ACCESS:          0  HIT:          0  MISS:          0  iACCESS:          0  iHIT:          0  iMISS:          0  dACCESS:          0  dHIT:          0  dMISS:          0  itACCESS:          0  itHIT:          0  itMISS:          0  dtACCESS:          0  dtHIT:          0  dtMISS:          0
cpu0_DTLB WRITE        ACCESS:          0  HIT:          0  MISS:          0  iACCESS:          0  iHIT:          0  iMISS:          0  dACCESS:          0  dHIT:          0  dMISS:          0  itACCESS:          0  itHIT:          0  itMISS:          0  dtACCESS:          0  dtHIT:          0  dtMISS:          0
cpu0_DTLB TRANSLATION  ACCESS:          0  HIT:          0  MISS:          0  iACCESS:          0  iHIT:          0  iMISS:          0  dACCESS:          0  dHIT:          0  dMISS:          0  itACCESS:          0  itHIT:          0  itMISS:          0  dtACCESS:          0  dtHIT:          0  dtMISS:          0
cpu0_DTLB PREFETCH  REQUESTED:          0  ISSUED:          0  CROSSED:          0  USEFUL:          0  USELESS:          0
cpu0_DTLB AVERAGE iMISS LATENCY: 0 cycles
cpu0_DTLB AVERAGE dMISS LATENCY: 12.5715 cycles
cpu0_DTLB AVERAGE itMISS LATENCY: 0 cycles
cpu0_DTLB AVERAGE dtMISS LATENCY: 0 cycles
cpu0_DTLB PAGE CROSSINGS (TLB HIT):         0 
cpu0_DTLB PAGE CROSSINGS (TLB MISS):         0 
cpu0_DTLB AVERAGE MISS LATENCY: 12.5715 cycles
cpu0_STLB TOTAL       ACCESS:    2621534  HIT:    2413994  MISS:     207540  iACCESS:     361181  iHIT:     330927  iMISS:      30254  dACCESS:    2260353  dHIT:    2083067  dMISS:     177286  itACCESS:          0  itHIT:          0  itMISS:          0  dtACCESS:          0  dtHIT:          0  dtMISS:          0
cpu0_STLB LOAD         ACCESS:    2621534  HIT:    2413994  MISS:     207540  iACCESS:     361181  iHIT:     330927  iMISS:      30254  dACCESS:    2260353  dHIT:    2083067  dMISS:     177286  itACCESS:          0  itHIT:          0  itMISS:          0  dtACCESS:          0  dtHIT:          0  dtMISS:          0
cpu0_STLB RFO          ACCESS:          0  HIT:          0  MISS:          0  iACCESS:          0  iHIT:          0  iMISS:          0  dACCESS:          0  dHIT:          0  dMISS:          0  itACCESS:          0  itHIT:          0  itMISS:          0  dtACCESS:          0  dtHIT:          0  dtMISS:          0
cpu0_STLB PREFETCH     ACCESS:          0  HIT:          0  MISS:          0  iACCESS:          0  iHIT:          0  iMISS:          0  dACCESS:          0  dHIT:          0  dMISS:          0  itACCESS:          0  itHIT:          0  itMISS:          0  dtACCESS:          0  dtHIT:          0  dtMISS:          0
cpu0_STLB WRITE        ACCESS:          0  HIT:          0  MISS:          0  iACCESS:          0  iHIT:          0  iMISS:          0  dACCESS:          0  dHIT:          0  dMISS:          0  itACCESS:          0  itHIT:          0  itMISS:          0  dtACCESS:          0  dtHIT:          0  dtMISS:          0
cpu0_STLB TRANSLATION  ACCESS:          0  HIT:          0  MISS:          0  iACCESS:          0  iHIT:          0  iMISS:          0  dACCESS:          0  dHIT:          0  dMISS:          0  itACCESS:          0  itHIT:          0  itMISS:          0  dtACCESS:          0  dtHIT:          0  dtMISS:          0
cpu0_STLB PREFETCH  REQUESTED:          0  ISSUED:          0  CROSSED:          0  USEFUL:          0  USELESS:          0
cpu0_STLB AVERAGE iMISS LATENCY: 24.8031 cycles
cpu0_STLB AVERAGE dMISS LATENCY: 172.422 cycles
cpu0_STLB AVERAGE itMISS LATENCY: 0 cycles
cpu0_STLB AVERAGE dtMISS LATENCY: 0 cycles
cpu0_STLB PAGE CROSSINGS (TLB HIT):         0 
cpu0_STLB PAGE CROSSINGS (TLB MISS):         0 
cpu0_STLB AVERAGE MISS LATENCY: 197.225 cycles
cpu0_L1D TOTAL       ACCESS:   46078108  HIT:   39151785  MISS:    6926323  iACCESS:          0  iHIT:          0  iMISS:          0  dACCESS:   45797080  dHIT:   39134969  dMISS:    6662111  itACCESS:      34272  itHIT:       2946  itMISS:      31326  dtACCESS:     246756  dtHIT:      13870  dtMISS:     232886
cpu0_L1D LOAD         ACCESS:   22044420  HIT:   18128440  MISS:    3915980  iACCESS:          0  iHIT:          0  iMISS:          0  dACCESS:   22044420  dHIT:   18128440  dMISS:    3915980  itACCESS:          0  itHIT:          0  itMISS:          0  dtACCESS:          0  dtHIT:          0  dtMISS:          0
cpu0_L1D RFO          ACCESS:          0  HIT:          0  MISS:          0  iACCESS:          0  iHIT:          0  iMISS:          0  dACCESS:          0  dHIT:          0  dMISS:          0  itACCESS:          0  itHIT:          0  itMISS:          0  dtACCESS:          0  dtHIT:          0  dtMISS:          0
cpu0_L1D PREFETCH     ACCESS:   13933422  HIT:   11640929  MISS:    2292493  iACCESS:          0  iHIT:          0  iMISS:          0  dACCESS:   13933422  dHIT:   11640929  dMISS:    2292493  itACCESS:          0  itHIT:          0  itMISS:          0  dtACCESS:          0  dtHIT:          0  dtMISS:          0
cpu0_L1D WRITE        ACCESS:    9819238  HIT:    9365600  MISS:     453638  iACCESS:          0  iHIT:          0  iMISS:          0  dACCESS:    9819238  dHIT:    9365600  dMISS:     453638  itACCESS:          0  itHIT:          0  itMISS:          0  dtACCESS:          0  dtHIT:          0  dtMISS:          0
cpu0_L1D TRANSLATION  ACCESS:     281028  HIT:      16816  MISS:     264212  iACCESS:          0  iHIT:          0  iMISS:          0  dACCESS:          0  dHIT:          0  dMISS:          0  itACCESS:      34272  itHIT:       2946  itMISS:      31326  dtACCESS:     246756  dtHIT:      13870  dtMISS:     232886
cpu0_L1D PREFETCH  REQUESTED:   22044420  ISSUED:   17928627  CROSSED:          0  USEFUL:     282048  USELESS:     876865
cpu0_L1D AVERAGE iMISS LATENCY: 0 cycles
cpu0_L1D AVERAGE dMISS LATENCY: 28.2955 cycles
cpu0_L1D AVERAGE itMISS LATENCY: 0.699535 cycles
cpu0_L1D AVERAGE dtMISS LATENCY: 4.84031 cycles
cpu0_L1D PAGE CROSSINGS (TLB HIT):         0 
cpu0_L1D PAGE CROSSINGS (TLB MISS):         0 
cpu0_L1D AVERAGE MISS LATENCY: 33.8353 cycles
cpu0_L2C TOTAL       ACCESS:    8710399  HIT:    5383112  MISS:    3327287  iACCESS:    3092104  iHIT:    1861068  iMISS:    1231036  dACCESS:    5362671  dHIT:    3482522  dMISS:    1880149  itACCESS:      31326  itHIT:       4447  itMISS:      26879  dtACCESS:     224298  dtHIT:      35075  dtMISS:     189223
cpu0_L2C LOAD         ACCESS:    3326821  HIT:    2564494  MISS:     762327  iACCESS:     713747  iHIT:     460996  iMISS:     252751  dACCESS:    2613074  dHIT:    2103498  dMISS:     509576  itACCESS:          0  itHIT:          0  itMISS:          0  dtACCESS:          0  dtHIT:          0  dtMISS:          0
cpu0_L2C RFO          ACCESS:     172038  HIT:      77657  MISS:      94381  iACCESS:          0  iHIT:          0  iMISS:          0  dACCESS:     172038  dHIT:      77657  dMISS:      94381  itACCESS:          0  itHIT:          0  itMISS:          0  dtACCESS:          0  dtHIT:          0  dtMISS:          0
cpu0_L2C PREFETCH     ACCESS:    4701703  HIT:    2449736  MISS:    2251967  iACCESS:    2378357  iHIT:    1400072  iMISS:     978285  dACCESS:    2323346  dHIT:    1049664  dMISS:    1273682  itACCESS:          0  itHIT:          0  itMISS:          0  dtACCESS:          0  dtHIT:          0  dtMISS:          0
cpu0_L2C WRITE        ACCESS:     254213  HIT:     251703  MISS:       2510  iACCESS:          0  iHIT:          0  iMISS:          0  dACCESS:     254213  dHIT:     251703  dMISS:       2510  itACCESS:          0  itHIT:          0  itMISS:          0  dtACCESS:          0  dtHIT:          0  dtMISS:          0
cpu0_L2C TRANSLATION  ACCESS:     255624  HIT:      39522  MISS:     216102  iACCESS:          0  iHIT:          0  iMISS:          0  dACCESS:          0  dHIT:          0  dMISS:          0  itACCESS:      31326  itHIT:       4447  itMISS:      26879  dtACCESS:     224298  dtHIT:      35075  dtMISS:     189223
cpu0_L2C PREFETCH  REQUESTED:    1393002  ISSUED:    1392826  CROSSED:          0  USEFUL:     327668  USELESS:     269138
cpu0_L2C AVERAGE iMISS LATENCY: 36.8461 cycles
cpu0_L2C AVERAGE dMISS LATENCY: 65.3105 cycles
cpu0_L2C AVERAGE itMISS LATENCY: 1.36311 cycles
cpu0_L2C AVERAGE dtMISS LATENCY: 9.40854 cycles
cpu0_L2C PAGE CROSSINGS (TLB HIT):         0 
cpu0_L2C PAGE CROSSINGS (TLB MISS):         0 
cpu0_L2C AVERAGE MISS LATENCY: 112.929 cycles
LLC TOTAL       ACCESS:    3293959  HIT:    1342914  MISS:    1951045  iACCESS:    1158764  iHIT:     483117  iMISS:     675647  dACCESS:    1919093  dHIT:     813906  dMISS:    1105187  itACCESS:      26879  itHIT:       4097  itMISS:      22782  dtACCESS:     189223  dtHIT:      41794  dtMISS:     147429
LLC LOAD         ACCESS:     755811  HIT:     321967  MISS:     433844  iACCESS:     251625  iHIT:     108587  iMISS:     143038  dACCESS:     504186  dHIT:     213380  dMISS:     290806  itACCESS:          0  itHIT:          0  itMISS:          0  dtACCESS:          0  dtHIT:          0  dtMISS:          0
LLC RFO          ACCESS:      94365  HIT:      32692  MISS:      61673  iACCESS:          0  iHIT:          0  iMISS:          0  dACCESS:      94365  dHIT:      32692  dMISS:      61673  itACCESS:          0  itHIT:          0  itMISS:          0  dtACCESS:          0  dtHIT:          0  dtMISS:          0
LLC PREFETCH     ACCESS:    2086157  HIT:     809059  MISS:    1277098  iACCESS:     907139  iHIT:     374530  iMISS:     532609  dACCESS:    1179018  dHIT:     434529  dMISS:     744489  itACCESS:          0  itHIT:          0  itMISS:          0  dtACCESS:          0  dtHIT:          0  dtMISS:          0
LLC WRITE        ACCESS:     141524  HIT:     133305  MISS:       8219  iACCESS:          0  iHIT:          0  iMISS:          0  dACCESS:     141524  dHIT:     133305  dMISS:       8219  itACCESS:          0  itHIT:          0  itMISS:          0  dtACCESS:          0  dtHIT:          0  dtMISS:          0
LLC TRANSLATION  ACCESS:     216102  HIT:      45891  MISS:     170211  iACCESS:          0  iHIT:          0  iMISS:          0  dACCESS:          0  dHIT:          0  dMISS:          0  itACCESS:      26879  itHIT:       4097  itMISS:      22782  dtACCESS:     189223  dtHIT:      41794  dtMISS:     147429
LLC PREFETCH  REQUESTED:          0  ISSUED:          0  CROSSED:          0  USEFUL:          0  USELESS:          0
LLC AVERAGE iMISS LATENCY: 51.21 cycles
LLC AVERAGE dMISS LATENCY: 94.5927 cycles
LLC AVERAGE itMISS LATENCY: 2.05225 cycles
LLC AVERAGE dtMISS LATENCY: 14.1356 cycles
LLC PAGE CROSSINGS (TLB HIT):         0 
LLC PAGE CROSSINGS (TLB MISS):         0 
LLC AVERAGE MISS LATENCY: 161.991 cycles

PageTableWalker TOTAL       ACCESS:     112553  
PageTableWalker AVERAGE LATENCY: 5.48953 cycles
PageTableWalker TOTAL LATENCY: 617863 cycles

DRAM Statistics
Channel 0
 RQ ROW_BUFFER_HIT:     540430
  ROW_BUFFER_MISS:    1383809
 AVG DBUS CONGESTED CYCLE:    3.63814
 WQ ROW_BUFFER_HIT:      39077
  ROW_BUFFER_MISS:      27825  FULL:          0

