last_page:0x200000000000000
VMEM_RES_CAP:0x100000
PAGE_SIZE:4096
LOG2_PAGE_SIZE:12
LOG2_PAGE_TABLE_SIZE:9
page_table_levels:5
WARNING: physical memory size is smaller than virtual memory size
FDiP enabled with aggresivity 16

*** ChampSim Multicore Out-of-Order Simulator ***

Warmup Instructions: 50000000
Simulation Instructions: 100000000
Number of CPUs: 1
Small page size: 4096
Large page size: 2097152

CPU 0 Bimodal branch predictor
Basic BTB sets: 1024 ways: 8 indirect buffer size: 4096 RAS size: 64
Instruction page size distrubution: 0
Loading instruction page size distribution from /home/bsc/bsc018186/scratch/itp_asplos25_AE/dump/srv715_ap.pdst
Data page size distrubution: 0
Loading data page size distribution from /home/bsc/bsc018186/scratch/itp_asplos25_AE/dump/srv715_ap.pdst
cpu0_L2C IP-based stride prefetcher
cpu0_L1D next line prefetcher
CHiRPing...
cpu0_L1I next line prefetcher
Off-chip DRAM Size: 4 GiB Channels: 1 Width: 64-bit Data Rate: 3200 MT/s
Heartbeat CPU 0 instructions: 10000001 cycles: 2500943 heartbeat IPC: 3.9985 cumulative IPC: 3.9985 (Simulation time: 0 hr 0 min 40 sec) 
Heartbeat CPU 0 instructions: 20000002 cycles: 5002723 heartbeat IPC: 3.99716 cumulative IPC: 3.99783 (Simulation time: 0 hr 1 min 21 sec) 
Heartbeat CPU 0 instructions: 30000001 cycles: 7502923 heartbeat IPC: 3.99968 cumulative IPC: 3.99845 (Simulation time: 0 hr 2 min 3 sec) 
Heartbeat CPU 0 instructions: 40000000 cycles: 10002979 heartbeat IPC: 3.99992 cumulative IPC: 3.99881 (Simulation time: 0 hr 2 min 45 sec) 
Heartbeat CPU 0 instructions: 50000001 cycles: 12503099 heartbeat IPC: 3.99981 cumulative IPC: 3.99901 (Simulation time: 0 hr 3 min 27 sec) 
Warmup finished CPU 0 instructions: 50000001 cycles: 12503100 cumulative IPC: 3.99901 (Simulation time: 0 hr 3 min 27 sec) 

Warmup complete CPU 0 instructions: 50000001 cycles: 12503100 (Simulation time: 0 hr 3 min 27 sec) 

Heartbeat CPU 0 instructions: 60000002 cycles: 31386561 heartbeat IPC: 0.529564 cumulative IPC: 0.529564 (Simulation time: 0 hr 4 min 38 sec) 
Heartbeat CPU 0 instructions: 70000000 cycles: 49796588 heartbeat IPC: 0.543183 cumulative IPC: 0.536287 (Simulation time: 0 hr 5 min 49 sec) 
Heartbeat CPU 0 instructions: 80000000 cycles: 68442825 heartbeat IPC: 0.536302 cumulative IPC: 0.536292 (Simulation time: 0 hr 7 min 1 sec) 
Heartbeat CPU 0 instructions: 90000001 cycles: 75185443 heartbeat IPC: 1.48311 cumulative IPC: 0.638139 (Simulation time: 0 hr 7 min 59 sec) 
Heartbeat CPU 0 instructions: 100000000 cycles: 94198650 heartbeat IPC: 0.525951 cumulative IPC: 0.612029 (Simulation time: 0 hr 9 min 10 sec) 
*** Reached end of trace: /gpfs/projects/bsc18/MN4/bsc18/romol/ChampSim/traces/qualcomm_srv/srv715_ap.champsimtrace.xz
Heartbeat CPU 0 instructions: 110000004 cycles: 113998653 heartbeat IPC: 0.505051 cumulative IPC: 0.591159 (Simulation time: 0 hr 10 min 22 sec) 
Heartbeat CPU 0 instructions: 120000000 cycles: 133071170 heartbeat IPC: 0.524315 cumulative IPC: 0.580585 (Simulation time: 0 hr 11 min 33 sec) 
Heartbeat CPU 0 instructions: 130000001 cycles: 153405105 heartbeat IPC: 0.491789 cumulative IPC: 0.567771 (Simulation time: 0 hr 12 min 47 sec) 
Heartbeat CPU 0 instructions: 140000003 cycles: 173139096 heartbeat IPC: 0.50674 cumulative IPC: 0.560273 (Simulation time: 0 hr 13 min 59 sec) 
Heartbeat CPU 0 instructions: 150000002 cycles: 193334703 heartbeat IPC: 0.495158 cumulative IPC: 0.553001 (Simulation time: 0 hr 15 min 12 sec) 
Simulation finished CPU 0 instructions: 100000001 cycles: 180831604 cumulative IPC: 0.553001 (Simulation time: 0 hr 15 min 12 sec) 

Simulation complete CPU 0 instructions: 100000001 cycles: 180831604 (Simulation time: 0 hr 15 min 12 sec) 


ChampSim completed all CPUs

Saving instructions large page distribution to /home/bsc/bsc018186/scratch/itp_asplos25_AE/dump/srv715_ap.pdst...
Saving data large page distribution to /home/bsc/bsc018186/scratch/itp_asplos25_AE/dump/srv715_ap.pdst...
=== Simulation ===
CPU 0 runs /gpfs/projects/bsc18/MN4/bsc18/romol/ChampSim/traces/qualcomm_srv/srv715_ap.champsimtrace.xz

Region of Interest Statistics

CPU 0 cumulative IPC: 0.553001 instructions: 100000001 cycles: 180831604
CPU 0 Branch Prediction Accuracy: 82.4813% MPKI: 33.9338 Average ROB Occupancy at Mispredict: 11.4269
Branch type MPKI
BRANCH_DIRECT_JUMP: 1.25524
BRANCH_INDIRECT: 17.3725
BRANCH_CONDITIONAL: 10.6191
BRANCH_DIRECT_CALL: 2.32746
BRANCH_INDIRECT_CALL: 0.69896
BRANCH_RETURN: 1.66061

Instructions large pages: 0
Instructions small pages: 1202
Large page distribution for instructions: 0%

Data large pages: 0
Data small pages: 5167
Large page distribution for data: 0%

cpu0_L1I TOTAL       ACCESS:   35401673  HIT:   27792687  MISS:    7608986  iACCESS:   35401673  iHIT:   27792687  iMISS:    7608986  dACCESS:          0  dHIT:          0  dMISS:          0  itACCESS:          0  itHIT:          0  itMISS:          0  dtACCESS:          0  dtHIT:          0  dtMISS:          0
cpu0_L1I LOAD         ACCESS:    9454396  HIT:    7359820  MISS:    2094576  iACCESS:    9454396  iHIT:    7359820  iMISS:    2094576  dACCESS:          0  dHIT:          0  dMISS:          0  itACCESS:          0  itHIT:          0  itMISS:          0  dtACCESS:          0  dtHIT:          0  dtMISS:          0
cpu0_L1I RFO          ACCESS:          0  HIT:          0  MISS:          0  iACCESS:          0  iHIT:          0  iMISS:          0  dACCESS:          0  dHIT:          0  dMISS:          0  itACCESS:          0  itHIT:          0  itMISS:          0  dtACCESS:          0  dtHIT:          0  dtMISS:          0
cpu0_L1I PREFETCH     ACCESS:   25947277  HIT:   20432867  MISS:    5514410  iACCESS:   25947277  iHIT:   20432867  iMISS:    5514410  dACCESS:          0  dHIT:          0  dMISS:          0  itACCESS:          0  itHIT:          0  itMISS:          0  dtACCESS:          0  dtHIT:          0  dtMISS:          0
cpu0_L1I WRITE        ACCESS:          0  HIT:          0  MISS:          0  iACCESS:          0  iHIT:          0  iMISS:          0  dACCESS:          0  dHIT:          0  dMISS:          0  itACCESS:          0  itHIT:          0  itMISS:          0  dtACCESS:          0  dtHIT:          0  dtMISS:          0
cpu0_L1I TRANSLATION  ACCESS:          0  HIT:          0  MISS:          0  iACCESS:          0  iHIT:          0  iMISS:          0  dACCESS:          0  dHIT:          0  dMISS:          0  itACCESS:          0  itHIT:          0  itMISS:          0  dtACCESS:          0  dtHIT:          0  dtMISS:          0
cpu0_L1I PREFETCH  REQUESTED:   27993937  ISSUED:   27992934  CROSSED:          0  USEFUL:    1805879  USELESS:     610853
cpu0_L1I AVERAGE iMISS LATENCY: 19.4439 cycles
cpu0_L1I AVERAGE dMISS LATENCY: 0 cycles
cpu0_L1I AVERAGE itMISS LATENCY: 0 cycles
cpu0_L1I AVERAGE dtMISS LATENCY: 0 cycles
cpu0_L1I PAGE CROSSINGS (TLB HIT):         0 
cpu0_L1I PAGE CROSSINGS (TLB MISS):         0 
cpu0_L1I AVERAGE MISS LATENCY: 19.4439 cycles
cpu0_ITLB TOTAL       ACCESS:   29710786  HIT:   27946516  MISS:    1764270  iACCESS:   29710786  iHIT:   27946516  iMISS:    1764270  dACCESS:          0  dHIT:          0  dMISS:          0  itACCESS:          0  itHIT:          0  itMISS:          0  dtACCESS:          0  dtHIT:          0  dtMISS:          0
cpu0_ITLB LOAD         ACCESS:   29710786  HIT:   27946516  MISS:    1764270  iACCESS:   29710786  iHIT:   27946516  iMISS:    1764270  dACCESS:          0  dHIT:          0  dMISS:          0  itACCESS:          0  itHIT:          0  itMISS:          0  dtACCESS:          0  dtHIT:          0  dtMISS:          0
cpu0_ITLB RFO          ACCESS:          0  HIT:          0  MISS:          0  iACCESS:          0  iHIT:          0  iMISS:          0  dACCESS:          0  dHIT:          0  dMISS:          0  itACCESS:          0  itHIT:          0  itMISS:          0  dtACCESS:          0  dtHIT:          0  dtMISS:          0
cpu0_ITLB PREFETCH     ACCESS:          0  HIT:          0  MISS:          0  iACCESS:          0  iHIT:          0  iMISS:          0  dACCESS:          0  dHIT:          0  dMISS:          0  itACCESS:          0  itHIT:          0  itMISS:          0  dtACCESS:          0  dtHIT:          0  dtMISS:          0
cpu0_ITLB WRITE        ACCESS:          0  HIT:          0  MISS:          0  iACCESS:          0  iHIT:          0  iMISS:          0  dACCESS:          0  dHIT:          0  dMISS:          0  itACCESS:          0  itHIT:          0  itMISS:          0  dtACCESS:          0  dtHIT:          0  dtMISS:          0
cpu0_ITLB TRANSLATION  ACCESS:          0  HIT:          0  MISS:          0  iACCESS:          0  iHIT:          0  iMISS:          0  dACCESS:          0  dHIT:          0  dMISS:          0  itACCESS:          0  itHIT:          0  itMISS:          0  dtACCESS:          0  dtHIT:          0  dtMISS:          0
cpu0_ITLB PREFETCH  REQUESTED:          0  ISSUED:          0  CROSSED:          0  USEFUL:     300666  USELESS:      60525
cpu0_ITLB AVERAGE iMISS LATENCY: 4.55227 cycles
cpu0_ITLB AVERAGE dMISS LATENCY: 0 cycles
cpu0_ITLB AVERAGE itMISS LATENCY: 0 cycles
cpu0_ITLB AVERAGE dtMISS LATENCY: 0 cycles
cpu0_ITLB PAGE CROSSINGS (TLB HIT):         0 
cpu0_ITLB PAGE CROSSINGS (TLB MISS):         0 
cpu0_ITLB AVERAGE MISS LATENCY: 4.55227 cycles
cpu0_DTLB TOTAL       ACCESS:   29940198  HIT:   25671590  MISS:    4268608  iACCESS:          0  iHIT:          0  iMISS:          0  dACCESS:   29940198  dHIT:   25671590  dMISS:    4268608  itACCESS:          0  itHIT:          0  itMISS:          0  dtACCESS:          0  dtHIT:          0  dtMISS:          0
cpu0_DTLB LOAD         ACCESS:   29940198  HIT:   25671590  MISS:    4268608  iACCESS:          0  iHIT:          0  iMISS:          0  dACCESS:   29940198  dHIT:   25671590  dMISS:    4268608  itACCESS:          0  itHIT:          0  itMISS:          0  dtACCESS:          0  dtHIT:          0  dtMISS:          0
cpu0_DTLB RFO          ACCESS:          0  HIT:          0  MISS:          0  iACCESS:          0  iHIT:          0  iMISS:          0  dACCESS:          0  dHIT:          0  dMISS:          0  itACCESS:          0  itHIT:          0  itMISS:          0  dtACCESS:          0  dtHIT:          0  dtMISS:          0
cpu0_DTLB PREFETCH     ACCESS:          0  HIT:          0  MISS:          0  iACCESS:          0  iHIT:          0  iMISS:          0  dACCESS:          0  dHIT:          0  dMISS:          0  itACCESS:          0  itHIT:          0  itMISS:          0  dtACCESS:          0  dtHIT:          0  dtMISS:          0
cpu0_DTLB WRITE        ACCESS:          0  HIT:          0  MISS:          0  iACCESS:          0  iHIT:          0  iMISS:          0  dACCESS:          0  dHIT:          0  dMISS:          0  itACCESS:          0  itHIT:          0  itMISS:          0  dtACCESS:          0  dtHIT:          0  dtMISS:          0
cpu0_DTLB TRANSLATION  ACCESS:          0  HIT:          0  MISS:          0  iACCESS:          0  iHIT:          0  iMISS:          0  dACCESS:          0  dHIT:          0  dMISS:          0  itACCESS:          0  itHIT:          0  itMISS:          0  dtACCESS:          0  dtHIT:          0  dtMISS:          0
cpu0_DTLB PREFETCH  REQUESTED:          0  ISSUED:          0  CROSSED:          0  USEFUL:          0  USELESS:          0
cpu0_DTLB AVERAGE iMISS LATENCY: 0 cycles
cpu0_DTLB AVERAGE dMISS LATENCY: 7.4229 cycles
cpu0_DTLB AVERAGE itMISS LATENCY: 0 cycles
cpu0_DTLB AVERAGE dtMISS LATENCY: 0 cycles
cpu0_DTLB PAGE CROSSINGS (TLB HIT):         0 
cpu0_DTLB PAGE CROSSINGS (TLB MISS):         0 
cpu0_DTLB AVERAGE MISS LATENCY: 7.4229 cycles
cpu0_STLB TOTAL       ACCESS:    2620879  HIT:    2395801  MISS:     225078  iACCESS:     361205  iHIT:     275910  iMISS:      85295  dACCESS:    2259674  dHIT:    2119891  dMISS:     139783  itACCESS:          0  itHIT:          0  itMISS:          0  dtACCESS:          0  dtHIT:          0  dtMISS:          0
cpu0_STLB LOAD         ACCESS:    2620879  HIT:    2395801  MISS:     225078  iACCESS:     361205  iHIT:     275910  iMISS:      85295  dACCESS:    2259674  dHIT:    2119891  dMISS:     139783  itACCESS:          0  itHIT:          0  itMISS:          0  dtACCESS:          0  dtHIT:          0  dtMISS:          0
cpu0_STLB RFO          ACCESS:          0  HIT:          0  MISS:          0  iACCESS:          0  iHIT:          0  iMISS:          0  dACCESS:          0  dHIT:          0  dMISS:          0  itACCESS:          0  itHIT:          0  itMISS:          0  dtACCESS:          0  dtHIT:          0  dtMISS:          0
cpu0_STLB PREFETCH     ACCESS:          0  HIT:          0  MISS:          0  iACCESS:          0  iHIT:          0  iMISS:          0  dACCESS:          0  dHIT:          0  dMISS:          0  itACCESS:          0  itHIT:          0  itMISS:          0  dtACCESS:          0  dtHIT:          0  dtMISS:          0
cpu0_STLB WRITE        ACCESS:          0  HIT:          0  MISS:          0  iACCESS:          0  iHIT:          0  iMISS:          0  dACCESS:          0  dHIT:          0  dMISS:          0  itACCESS:          0  itHIT:          0  itMISS:          0  dtACCESS:          0  dtHIT:          0  dtMISS:          0
cpu0_STLB TRANSLATION  ACCESS:          0  HIT:          0  MISS:          0  iACCESS:          0  iHIT:          0  iMISS:          0  dACCESS:          0  dHIT:          0  dMISS:          0  itACCESS:          0  itHIT:          0  itMISS:          0  dtACCESS:          0  dtHIT:          0  dtMISS:          0
cpu0_STLB PREFETCH  REQUESTED:          0  ISSUED:          0  CROSSED:          0  USEFUL:          0  USELESS:          0
cpu0_STLB AVERAGE iMISS LATENCY: 22.8699 cycles
cpu0_STLB AVERAGE dMISS LATENCY: 59.668 cycles
cpu0_STLB AVERAGE itMISS LATENCY: 0 cycles
cpu0_STLB AVERAGE dtMISS LATENCY: 0 cycles
cpu0_STLB PAGE CROSSINGS (TLB HIT):         0 
cpu0_STLB PAGE CROSSINGS (TLB MISS):         0 
cpu0_STLB AVERAGE MISS LATENCY: 82.5379 cycles
cpu0_L1D TOTAL       ACCESS:   46799015  HIT:   39175026  MISS:    7623989  iACCESS:          0  iHIT:          0  iMISS:          0  dACCESS:   46514529  dHIT:   39151937  dMISS:    7362592  itACCESS:      91452  itHIT:      12128  itMISS:      79324  dtACCESS:     193034  dtHIT:      10961  dtMISS:     182073
cpu0_L1D LOAD         ACCESS:   22532065  HIT:   18197966  MISS:    4334099  iACCESS:          0  iHIT:          0  iMISS:          0  dACCESS:   22532065  dHIT:   18197966  dMISS:    4334099  itACCESS:          0  itHIT:          0  itMISS:          0  dtACCESS:          0  dtHIT:          0  dtMISS:          0
cpu0_L1D RFO          ACCESS:          0  HIT:          0  MISS:          0  iACCESS:          0  iHIT:          0  iMISS:          0  dACCESS:          0  dHIT:          0  dMISS:          0  itACCESS:          0  itHIT:          0  itMISS:          0  dtACCESS:          0  dtHIT:          0  dtMISS:          0
cpu0_L1D PREFETCH     ACCESS:   14165666  HIT:   11590079  MISS:    2575587  iACCESS:          0  iHIT:          0  iMISS:          0  dACCESS:   14165666  dHIT:   11590079  dMISS:    2575587  itACCESS:          0  itHIT:          0  itMISS:          0  dtACCESS:          0  dtHIT:          0  dtMISS:          0
cpu0_L1D WRITE        ACCESS:    9816798  HIT:    9363892  MISS:     452906  iACCESS:          0  iHIT:          0  iMISS:          0  dACCESS:    9816798  dHIT:    9363892  dMISS:     452906  itACCESS:          0  itHIT:          0  itMISS:          0  dtACCESS:          0  dtHIT:          0  dtMISS:          0
cpu0_L1D TRANSLATION  ACCESS:     284486  HIT:      23089  MISS:     261397  iACCESS:          0  iHIT:          0  iMISS:          0  dACCESS:          0  dHIT:          0  dMISS:          0  itACCESS:      91452  itHIT:      12128  itMISS:      79324  dtACCESS:     193034  dtHIT:      10961  dtMISS:     182073
cpu0_L1D PREFETCH  REQUESTED:   22532065  ISSUED:   17834033  CROSSED:          0  USEFUL:     282471  USELESS:     734592
cpu0_L1D AVERAGE iMISS LATENCY: 0 cycles
cpu0_L1D AVERAGE dMISS LATENCY: 25.642 cycles
cpu0_L1D AVERAGE itMISS LATENCY: 0.578856 cycles
cpu0_L1D AVERAGE dtMISS LATENCY: 1.52456 cycles
cpu0_L1D PAGE CROSSINGS (TLB HIT):         0 
cpu0_L1D PAGE CROSSINGS (TLB MISS):         0 
cpu0_L1D AVERAGE MISS LATENCY: 27.7454 cycles
cpu0_L2C TOTAL       ACCESS:    8492452  HIT:    2377754  MISS:    6114698  iACCESS:    3092424  iHIT:     765929  iMISS:    2326495  dACCESS:    5145282  dHIT:    1460326  dMISS:    3684956  itACCESS:      79324  itHIT:      53211  itMISS:      26113  dtACCESS:     175422  dtHIT:      98288  dtMISS:      77134
cpu0_L2C LOAD         ACCESS:    3270545  HIT:    1059376  MISS:    2211169  iACCESS:     706922  iHIT:     128085  iMISS:     578837  dACCESS:    2563623  dHIT:     931291  dMISS:    1632332  itACCESS:          0  itHIT:          0  itMISS:          0  dtACCESS:          0  dtHIT:          0  dtMISS:          0
cpu0_L2C RFO          ACCESS:     172251  HIT:      55335  MISS:     116916  iACCESS:          0  iHIT:          0  iMISS:          0  dACCESS:     172251  dHIT:      55335  dMISS:     116916  itACCESS:          0  itHIT:          0  itMISS:          0  dtACCESS:          0  dtHIT:          0  dtMISS:          0
cpu0_L2C PREFETCH     ACCESS:    4540916  HIT:    1002933  MISS:    3537983  iACCESS:    2385502  iHIT:     637844  iMISS:    1747658  dACCESS:    2155414  dHIT:     365089  dMISS:    1790325  itACCESS:          0  itHIT:          0  itMISS:          0  dtACCESS:          0  dtHIT:          0  dtMISS:          0
cpu0_L2C WRITE        ACCESS:     253994  HIT:     108611  MISS:     145383  iACCESS:          0  iHIT:          0  iMISS:          0  dACCESS:     253994  dHIT:     108611  dMISS:     145383  itACCESS:          0  itHIT:          0  itMISS:          0  dtACCESS:          0  dtHIT:          0  dtMISS:          0
cpu0_L2C TRANSLATION  ACCESS:     254746  HIT:     151499  MISS:     103247  iACCESS:          0  iHIT:          0  iMISS:          0  dACCESS:          0  dHIT:          0  dMISS:          0  itACCESS:      79324  itHIT:      53211  itMISS:      26113  dtACCESS:     175422  dtHIT:      98288  dtMISS:      77134
cpu0_L2C PREFETCH  REQUESTED:    1370647  ISSUED:    1370619  CROSSED:          0  USEFUL:     376027  USELESS:     385824
cpu0_L2C AVERAGE iMISS LATENCY: 19.6736 cycles
cpu0_L2C AVERAGE dMISS LATENCY: 35.7691 cycles
cpu0_L2C AVERAGE itMISS LATENCY: 0.600434 cycles
cpu0_L2C AVERAGE dtMISS LATENCY: 1.62901 cycles
cpu0_L2C PAGE CROSSINGS (TLB HIT):         0 
cpu0_L2C PAGE CROSSINGS (TLB MISS):         0 
cpu0_L2C AVERAGE MISS LATENCY: 57.6721 cycles
LLC TOTAL       ACCESS:    5938640  HIT:    4402935  MISS:    1535705  iACCESS:    2255289  iHIT:    1728626  iMISS:     526663  dACCESS:    3580104  dHIT:    2634505  dMISS:     945599  itACCESS:      26113  itHIT:       8168  itMISS:      17945  dtACCESS:      77134  dtHIT:      31636  dtMISS:      45498
LLC LOAD         ACCESS:    2204456  HIT:    1855334  MISS:     349122  iACCESS:     577683  iHIT:     471450  iMISS:     106233  dACCESS:    1626773  dHIT:    1383884  dMISS:     242889  itACCESS:          0  itHIT:          0  itMISS:          0  dtACCESS:          0  dtHIT:          0  dtMISS:          0
LLC RFO          ACCESS:     116899  HIT:      61293  MISS:      55606  iACCESS:          0  iHIT:          0  iMISS:          0  dACCESS:     116899  dHIT:      61293  dMISS:      55606  itACCESS:          0  itHIT:          0  itMISS:          0  dtACCESS:          0  dtHIT:          0  dtMISS:          0
LLC PREFETCH     ACCESS:    3364594  HIT:    2306488  MISS:    1058106  iACCESS:    1677606  iHIT:    1257176  iMISS:     420430  dACCESS:    1686988  dHIT:    1049312  dMISS:     637676  itACCESS:          0  itHIT:          0  itMISS:          0  dtACCESS:          0  dtHIT:          0  dtMISS:          0
LLC WRITE        ACCESS:     149444  HIT:     140016  MISS:       9428  iACCESS:          0  iHIT:          0  iMISS:          0  dACCESS:     149444  dHIT:     140016  dMISS:       9428  itACCESS:          0  itHIT:          0  itMISS:          0  dtACCESS:          0  dtHIT:          0  dtMISS:          0
LLC TRANSLATION  ACCESS:     103247  HIT:      39804  MISS:      63443  iACCESS:          0  iHIT:          0  iMISS:          0  dACCESS:          0  dHIT:          0  dMISS:          0  itACCESS:      26113  itHIT:       8168  itMISS:      17945  dtACCESS:      77134  dtHIT:      31636  dtMISS:      45498
LLC PREFETCH  REQUESTED:          0  ISSUED:          0  CROSSED:          0  USEFUL:          0  USELESS:          0
LLC AVERAGE iMISS LATENCY: 49.895 cycles
LLC AVERAGE dMISS LATENCY: 99.9576 cycles
LLC AVERAGE itMISS LATENCY: 2.05678 cycles
LLC AVERAGE dtMISS LATENCY: 5.50405 cycles
LLC PAGE CROSSINGS (TLB HIT):         0 
LLC PAGE CROSSINGS (TLB MISS):         0 
LLC AVERAGE MISS LATENCY: 157.414 cycles

PageTableWalker TOTAL       ACCESS:     129948  
PageTableWalker AVERAGE LATENCY: 4.33285 cycles
PageTableWalker TOTAL LATENCY: 563044 cycles

DRAM Statistics
Channel 0
 RQ ROW_BUFFER_HIT:     464166
  ROW_BUFFER_MISS:    1047563
 AVG DBUS CONGESTED CYCLE:    3.63919
 WQ ROW_BUFFER_HIT:      32631
  ROW_BUFFER_MISS:      25737  FULL:          0

