last_page:0x200000000000000
VMEM_RES_CAP:0x100000
PAGE_SIZE:4096
LOG2_PAGE_SIZE:12
LOG2_PAGE_TABLE_SIZE:9
page_table_levels:5
WARNING: physical memory size is smaller than virtual memory size
FDiP enabled with aggresivity 16

*** ChampSim Multicore Out-of-Order Simulator ***

Warmup Instructions: 50000000
Simulation Instructions: 100000000
Number of CPUs: 1
Small page size: 4096
Large page size: 2097152

CPU 0 Bimodal branch predictor
Basic BTB sets: 1024 ways: 8 indirect buffer size: 4096 RAS size: 64
Instruction page size distrubution: 0
Loading instruction page size distribution from /home/bsc/bsc018186/scratch/itp_asplos25_AE/dump/srv764_ap.pdst
Data page size distrubution: 0
Loading data page size distribution from /home/bsc/bsc018186/scratch/itp_asplos25_AE/dump/srv764_ap.pdst
cpu0_L2C IP-based stride prefetcher
cpu0_L2C is using PTP replacement policy:
	TLB_STRESS_THRESHOLD:0
	PTE_EVICTION_RATIO:0
cpu0_L1D next line prefetcher
CHiRPing...
cpu0_L1I next line prefetcher
Off-chip DRAM Size: 4 GiB Channels: 1 Width: 64-bit Data Rate: 3200 MT/s
Heartbeat CPU 0 instructions: 10000000 cycles: 2500104 heartbeat IPC: 3.99984 cumulative IPC: 3.99984 (Simulation time: 0 hr 0 min 38 sec) 
Heartbeat CPU 0 instructions: 20000003 cycles: 5000139 heartbeat IPC: 3.99995 cumulative IPC: 3.99989 (Simulation time: 0 hr 1 min 17 sec) 
Heartbeat CPU 0 instructions: 30000002 cycles: 7500166 heartbeat IPC: 3.99996 cumulative IPC: 3.99992 (Simulation time: 0 hr 1 min 58 sec) 
Heartbeat CPU 0 instructions: 40000001 cycles: 10000171 heartbeat IPC: 4 cumulative IPC: 3.99994 (Simulation time: 0 hr 2 min 39 sec) 
Heartbeat CPU 0 instructions: 50000001 cycles: 12886210 heartbeat IPC: 3.46496 cumulative IPC: 3.88012 (Simulation time: 0 hr 3 min 22 sec) 
Warmup finished CPU 0 instructions: 50000001 cycles: 12886211 cumulative IPC: 3.88012 (Simulation time: 0 hr 3 min 22 sec) 

Warmup complete CPU 0 instructions: 50000001 cycles: 12886211 (Simulation time: 0 hr 3 min 22 sec) 

Heartbeat CPU 0 instructions: 60000003 cycles: 26220935 heartbeat IPC: 0.749922 cumulative IPC: 0.749922 (Simulation time: 0 hr 4 min 28 sec) 
Heartbeat CPU 0 instructions: 70000001 cycles: 45537193 heartbeat IPC: 0.517699 cumulative IPC: 0.61254 (Simulation time: 0 hr 5 min 41 sec) 
Heartbeat CPU 0 instructions: 80000001 cycles: 64156663 heartbeat IPC: 0.537073 cumulative IPC: 0.585133 (Simulation time: 0 hr 6 min 53 sec) 
Heartbeat CPU 0 instructions: 90000002 cycles: 82839332 heartbeat IPC: 0.535256 cumulative IPC: 0.571812 (Simulation time: 0 hr 8 min 5 sec) 
Heartbeat CPU 0 instructions: 100000000 cycles: 101215201 heartbeat IPC: 0.544192 cumulative IPC: 0.566066 (Simulation time: 0 hr 9 min 16 sec) 
*** Reached end of trace: /gpfs/projects/bsc18/MN4/bsc18/romol/ChampSim/traces/qualcomm_srv/srv764_ap.champsimtrace.xz
Heartbeat CPU 0 instructions: 110000004 cycles: 119339195 heartbeat IPC: 0.551755 cumulative IPC: 0.56363 (Simulation time: 0 hr 10 min 27 sec) 
Heartbeat CPU 0 instructions: 120000002 cycles: 138986573 heartbeat IPC: 0.508974 cumulative IPC: 0.555114 (Simulation time: 0 hr 11 min 41 sec) 
Heartbeat CPU 0 instructions: 130000000 cycles: 159661956 heartbeat IPC: 0.483667 cumulative IPC: 0.54505 (Simulation time: 0 hr 12 min 54 sec) 
Heartbeat CPU 0 instructions: 140000003 cycles: 180362277 heartbeat IPC: 0.483085 cumulative IPC: 0.537391 (Simulation time: 0 hr 14 min 8 sec) 
Heartbeat CPU 0 instructions: 150000001 cycles: 195661571 heartbeat IPC: 0.653625 cumulative IPC: 0.54712 (Simulation time: 0 hr 15 min 15 sec) 
Simulation finished CPU 0 instructions: 100000000 cycles: 182775361 cumulative IPC: 0.54712 (Simulation time: 0 hr 15 min 15 sec) 

Simulation complete CPU 0 instructions: 100000000 cycles: 182775361 (Simulation time: 0 hr 15 min 15 sec) 


ChampSim completed all CPUs

Saving instructions large page distribution to /home/bsc/bsc018186/scratch/itp_asplos25_AE/dump/srv764_ap.pdst...
Saving data large page distribution to /home/bsc/bsc018186/scratch/itp_asplos25_AE/dump/srv764_ap.pdst...
=== Simulation ===
CPU 0 runs /gpfs/projects/bsc18/MN4/bsc18/romol/ChampSim/traces/qualcomm_srv/srv764_ap.champsimtrace.xz

Region of Interest Statistics

CPU 0 cumulative IPC: 0.54712 instructions: 100000000 cycles: 182775361
CPU 0 Branch Prediction Accuracy: 82.3659% MPKI: 33.5305 Average ROB Occupancy at Mispredict: 11.3814
Branch type MPKI
BRANCH_DIRECT_JUMP: 1.21739
BRANCH_INDIRECT: 16.9293
BRANCH_CONDITIONAL: 10.8073
BRANCH_DIRECT_CALL: 2.28575
BRANCH_INDIRECT_CALL: 0.688101
BRANCH_RETURN: 1.60284

Instructions large pages: 0
Instructions small pages: 5930
Large page distribution for instructions: 0%

Data large pages: 0
Data small pages: 4775
Large page distribution for data: 0%

cpu0_L1I TOTAL       ACCESS:   35026084  HIT:   27434519  MISS:    7591565  iACCESS:   35026084  iHIT:   27434519  iMISS:    7591565  dACCESS:          0  dHIT:          0  dMISS:          0  itACCESS:          0  itHIT:          0  itMISS:          0  dtACCESS:          0  dtHIT:          0  dtMISS:          0
cpu0_L1I LOAD         ACCESS:    9495147  HIT:    7415508  MISS:    2079639  iACCESS:    9495147  iHIT:    7415508  iMISS:    2079639  dACCESS:          0  dHIT:          0  dMISS:          0  itACCESS:          0  itHIT:          0  itMISS:          0  dtACCESS:          0  dtHIT:          0  dtMISS:          0
cpu0_L1I RFO          ACCESS:          0  HIT:          0  MISS:          0  iACCESS:          0  iHIT:          0  iMISS:          0  dACCESS:          0  dHIT:          0  dMISS:          0  itACCESS:          0  itHIT:          0  itMISS:          0  dtACCESS:          0  dtHIT:          0  dtMISS:          0
cpu0_L1I PREFETCH     ACCESS:   25530937  HIT:   20019011  MISS:    5511926  iACCESS:   25530937  iHIT:   20019011  iMISS:    5511926  dACCESS:          0  dHIT:          0  dMISS:          0  itACCESS:          0  itHIT:          0  itMISS:          0  dtACCESS:          0  dtHIT:          0  dtMISS:          0
cpu0_L1I WRITE        ACCESS:          0  HIT:          0  MISS:          0  iACCESS:          0  iHIT:          0  iMISS:          0  dACCESS:          0  dHIT:          0  dMISS:          0  itACCESS:          0  itHIT:          0  itMISS:          0  dtACCESS:          0  dtHIT:          0  dtMISS:          0
cpu0_L1I TRANSLATION  ACCESS:          0  HIT:          0  MISS:          0  iACCESS:          0  iHIT:          0  iMISS:          0  dACCESS:          0  dHIT:          0  dMISS:          0  itACCESS:          0  itHIT:          0  itMISS:          0  dtACCESS:          0  dtHIT:          0  dtMISS:          0
cpu0_L1I PREFETCH  REQUESTED:   27575740  ISSUED:   27574761  CROSSED:          0  USEFUL:    1821869  USELESS:     604641
cpu0_L1I AVERAGE iMISS LATENCY: 19.6577 cycles
cpu0_L1I AVERAGE dMISS LATENCY: 0 cycles
cpu0_L1I AVERAGE itMISS LATENCY: 0 cycles
cpu0_L1I AVERAGE dtMISS LATENCY: 0 cycles
cpu0_L1I PAGE CROSSINGS (TLB HIT):         0 
cpu0_L1I PAGE CROSSINGS (TLB MISS):         0 
cpu0_L1I AVERAGE MISS LATENCY: 19.6577 cycles
cpu0_ITLB TOTAL       ACCESS:   29454529  HIT:   27664343  MISS:    1790186  iACCESS:   29454529  iHIT:   27664343  iMISS:    1790186  dACCESS:          0  dHIT:          0  dMISS:          0  itACCESS:          0  itHIT:          0  itMISS:          0  dtACCESS:          0  dtHIT:          0  dtMISS:          0
cpu0_ITLB LOAD         ACCESS:   29454529  HIT:   27664343  MISS:    1790186  iACCESS:   29454529  iHIT:   27664343  iMISS:    1790186  dACCESS:          0  dHIT:          0  dMISS:          0  itACCESS:          0  itHIT:          0  itMISS:          0  dtACCESS:          0  dtHIT:          0  dtMISS:          0
cpu0_ITLB RFO          ACCESS:          0  HIT:          0  MISS:          0  iACCESS:          0  iHIT:          0  iMISS:          0  dACCESS:          0  dHIT:          0  dMISS:          0  itACCESS:          0  itHIT:          0  itMISS:          0  dtACCESS:          0  dtHIT:          0  dtMISS:          0
cpu0_ITLB PREFETCH     ACCESS:          0  HIT:          0  MISS:          0  iACCESS:          0  iHIT:          0  iMISS:          0  dACCESS:          0  dHIT:          0  dMISS:          0  itACCESS:          0  itHIT:          0  itMISS:          0  dtACCESS:          0  dtHIT:          0  dtMISS:          0
cpu0_ITLB WRITE        ACCESS:          0  HIT:          0  MISS:          0  iACCESS:          0  iHIT:          0  iMISS:          0  dACCESS:          0  dHIT:          0  dMISS:          0  itACCESS:          0  itHIT:          0  itMISS:          0  dtACCESS:          0  dtHIT:          0  dtMISS:          0
cpu0_ITLB TRANSLATION  ACCESS:          0  HIT:          0  MISS:          0  iACCESS:          0  iHIT:          0  iMISS:          0  dACCESS:          0  dHIT:          0  dMISS:          0  itACCESS:          0  itHIT:          0  itMISS:          0  dtACCESS:          0  dtHIT:          0  dtMISS:          0
cpu0_ITLB PREFETCH  REQUESTED:          0  ISSUED:          0  CROSSED:          0  USEFUL:     304430  USELESS:      57432
cpu0_ITLB AVERAGE iMISS LATENCY: 4.81771 cycles
cpu0_ITLB AVERAGE dMISS LATENCY: 0 cycles
cpu0_ITLB AVERAGE itMISS LATENCY: 0 cycles
cpu0_ITLB AVERAGE dtMISS LATENCY: 0 cycles
cpu0_ITLB PAGE CROSSINGS (TLB HIT):         0 
cpu0_ITLB PAGE CROSSINGS (TLB MISS):         0 
cpu0_ITLB AVERAGE MISS LATENCY: 4.81771 cycles
cpu0_DTLB TOTAL       ACCESS:   29317158  HIT:   25766849  MISS:    3550309  iACCESS:          0  iHIT:          0  iMISS:          0  dACCESS:   29317158  dHIT:   25766849  dMISS:    3550309  itACCESS:          0  itHIT:          0  itMISS:          0  dtACCESS:          0  dtHIT:          0  dtMISS:          0
cpu0_DTLB LOAD         ACCESS:   29317158  HIT:   25766849  MISS:    3550309  iACCESS:          0  iHIT:          0  iMISS:          0  dACCESS:   29317158  dHIT:   25766849  dMISS:    3550309  itACCESS:          0  itHIT:          0  itMISS:          0  dtACCESS:          0  dtHIT:          0  dtMISS:          0
cpu0_DTLB RFO          ACCESS:          0  HIT:          0  MISS:          0  iACCESS:          0  iHIT:          0  iMISS:          0  dACCESS:          0  dHIT:          0  dMISS:          0  itACCESS:          0  itHIT:          0  itMISS:          0  dtACCESS:          0  dtHIT:          0  dtMISS:          0
cpu0_DTLB PREFETCH     ACCESS:          0  HIT:          0  MISS:          0  iACCESS:          0  iHIT:          0  iMISS:          0  dACCESS:          0  dHIT:          0  dMISS:          0  itACCESS:          0  itHIT:          0  itMISS:          0  dtACCESS:          0  dtHIT:          0  dtMISS:          0
cpu0_DTLB WRITE        ACCESS:          0  HIT:          0  MISS:          0  iACCESS:          0  iHIT:          0  iMISS:          0  dACCESS:          0  dHIT:          0  dMISS:          0  itACCESS:          0  itHIT:          0  itMISS:          0  dtACCESS:          0  dtHIT:          0  dtMISS:          0
cpu0_DTLB TRANSLATION  ACCESS:          0  HIT:          0  MISS:          0  iACCESS:          0  iHIT:          0  iMISS:          0  dACCESS:          0  dHIT:          0  dMISS:          0  itACCESS:          0  itHIT:          0  itMISS:          0  dtACCESS:          0  dtHIT:          0  dtMISS:          0
cpu0_DTLB PREFETCH  REQUESTED:          0  ISSUED:          0  CROSSED:          0  USEFUL:          0  USELESS:          0
cpu0_DTLB AVERAGE iMISS LATENCY: 0 cycles
cpu0_DTLB AVERAGE dMISS LATENCY: 8.59824 cycles
cpu0_DTLB AVERAGE itMISS LATENCY: 0 cycles
cpu0_DTLB AVERAGE dtMISS LATENCY: 0 cycles
cpu0_DTLB PAGE CROSSINGS (TLB HIT):         0 
cpu0_DTLB PAGE CROSSINGS (TLB MISS):         0 
cpu0_DTLB AVERAGE MISS LATENCY: 8.59824 cycles
cpu0_STLB TOTAL       ACCESS:    2311207  HIT:    2092737  MISS:     218470  iACCESS:     361870  iHIT:     278347  iMISS:      83523  dACCESS:    1949337  dHIT:    1814390  dMISS:     134947  itACCESS:          0  itHIT:          0  itMISS:          0  dtACCESS:          0  dtHIT:          0  dtMISS:          0
cpu0_STLB LOAD         ACCESS:    2311207  HIT:    2092737  MISS:     218470  iACCESS:     361870  iHIT:     278347  iMISS:      83523  dACCESS:    1949337  dHIT:    1814390  dMISS:     134947  itACCESS:          0  itHIT:          0  itMISS:          0  dtACCESS:          0  dtHIT:          0  dtMISS:          0
cpu0_STLB RFO          ACCESS:          0  HIT:          0  MISS:          0  iACCESS:          0  iHIT:          0  iMISS:          0  dACCESS:          0  dHIT:          0  dMISS:          0  itACCESS:          0  itHIT:          0  itMISS:          0  dtACCESS:          0  dtHIT:          0  dtMISS:          0
cpu0_STLB PREFETCH     ACCESS:          0  HIT:          0  MISS:          0  iACCESS:          0  iHIT:          0  iMISS:          0  dACCESS:          0  dHIT:          0  dMISS:          0  itACCESS:          0  itHIT:          0  itMISS:          0  dtACCESS:          0  dtHIT:          0  dtMISS:          0
cpu0_STLB WRITE        ACCESS:          0  HIT:          0  MISS:          0  iACCESS:          0  iHIT:          0  iMISS:          0  dACCESS:          0  dHIT:          0  dMISS:          0  itACCESS:          0  itHIT:          0  itMISS:          0  dtACCESS:          0  dtHIT:          0  dtMISS:          0
cpu0_STLB TRANSLATION  ACCESS:          0  HIT:          0  MISS:          0  iACCESS:          0  iHIT:          0  iMISS:          0  dACCESS:          0  dHIT:          0  dMISS:          0  itACCESS:          0  itHIT:          0  itMISS:          0  dtACCESS:          0  dtHIT:          0  dtMISS:          0
cpu0_STLB PREFETCH  REQUESTED:          0  ISSUED:          0  CROSSED:          0  USEFUL:          0  USELESS:          0
cpu0_STLB AVERAGE iMISS LATENCY: 26.2504 cycles
cpu0_STLB AVERAGE dMISS LATENCY: 67.7031 cycles
cpu0_STLB AVERAGE itMISS LATENCY: 0 cycles
cpu0_STLB AVERAGE dtMISS LATENCY: 0 cycles
cpu0_STLB PAGE CROSSINGS (TLB HIT):         0 
cpu0_STLB PAGE CROSSINGS (TLB MISS):         0 
cpu0_STLB AVERAGE MISS LATENCY: 93.9534 cycles
cpu0_L1D TOTAL       ACCESS:   45214558  HIT:   38780626  MISS:    6433932  iACCESS:          0  iHIT:          0  iMISS:          0  dACCESS:   44935931  dHIT:   38755354  dMISS:    6180577  itACCESS:      89713  itHIT:      14347  itMISS:      75366  dtACCESS:     188914  dtHIT:      10925  dtMISS:     177989
cpu0_L1D LOAD         ACCESS:   21524068  HIT:   18017045  MISS:    3507023  iACCESS:          0  iHIT:          0  iMISS:          0  dACCESS:   21524068  dHIT:   18017045  dMISS:    3507023  itACCESS:          0  itHIT:          0  itMISS:          0  dtACCESS:          0  dtHIT:          0  dtMISS:          0
cpu0_L1D RFO          ACCESS:          0  HIT:          0  MISS:          0  iACCESS:          0  iHIT:          0  iMISS:          0  dACCESS:          0  dHIT:          0  dMISS:          0  itACCESS:          0  itHIT:          0  itMISS:          0  dtACCESS:          0  dtHIT:          0  dtMISS:          0
cpu0_L1D PREFETCH     ACCESS:   13507915  HIT:   11309752  MISS:    2198163  iACCESS:          0  iHIT:          0  iMISS:          0  dACCESS:   13507915  dHIT:   11309752  dMISS:    2198163  itACCESS:          0  itHIT:          0  itMISS:          0  dtACCESS:          0  dtHIT:          0  dtMISS:          0
cpu0_L1D WRITE        ACCESS:    9903948  HIT:    9428557  MISS:     475391  iACCESS:          0  iHIT:          0  iMISS:          0  dACCESS:    9903948  dHIT:    9428557  dMISS:     475391  itACCESS:          0  itHIT:          0  itMISS:          0  dtACCESS:          0  dtHIT:          0  dtMISS:          0
cpu0_L1D TRANSLATION  ACCESS:     278627  HIT:      25272  MISS:     253355  iACCESS:          0  iHIT:          0  iMISS:          0  dACCESS:          0  dHIT:          0  dMISS:          0  itACCESS:      89713  itHIT:      14347  itMISS:      75366  dtACCESS:     188914  dtHIT:      10925  dtMISS:     177989
cpu0_L1D PREFETCH  REQUESTED:   21524068  ISSUED:   17468924  CROSSED:          0  USEFUL:     285284  USELESS:     698286
cpu0_L1D AVERAGE iMISS LATENCY: 0 cycles
cpu0_L1D AVERAGE dMISS LATENCY: 29.4236 cycles
cpu0_L1D AVERAGE itMISS LATENCY: 0.777964 cycles
cpu0_L1D AVERAGE dtMISS LATENCY: 2.00355 cycles
cpu0_L1D PAGE CROSSINGS (TLB HIT):         0 
cpu0_L1D PAGE CROSSINGS (TLB MISS):         0 
cpu0_L1D AVERAGE MISS LATENCY: 32.2051 cycles
cpu0_L2C TOTAL       ACCESS:    7990277  HIT:    2513436  MISS:    5476841  iACCESS:    3096015  iHIT:     942055  iMISS:    2153960  dACCESS:    4650172  dHIT:    1426417  dMISS:    3223755  itACCESS:      75366  itHIT:      46144  itMISS:      29222  dtACCESS:     168724  dtHIT:      98820  dtMISS:      69904
cpu0_L2C LOAD         ACCESS:    2789724  HIT:    1038710  MISS:    1751014  iACCESS:     703097  iHIT:     175211  iMISS:     527886  dACCESS:    2086627  dHIT:     863499  dMISS:    1223128  itACCESS:          0  itHIT:          0  itMISS:          0  dtACCESS:          0  dtHIT:          0  dtMISS:          0
cpu0_L2C RFO          ACCESS:     167496  HIT:      31699  MISS:     135797  iACCESS:          0  iHIT:          0  iMISS:          0  dACCESS:     167496  dHIT:      31699  dMISS:     135797  itACCESS:          0  itHIT:          0  itMISS:          0  dtACCESS:          0  dtHIT:          0  dtMISS:          0
cpu0_L2C PREFETCH     ACCESS:    4534841  HIT:    1195288  MISS:    3339553  iACCESS:    2392918  iHIT:     766844  iMISS:    1626074  dACCESS:    2141923  dHIT:     428444  dMISS:    1713479  itACCESS:          0  itHIT:          0  itMISS:          0  dtACCESS:          0  dtHIT:          0  dtMISS:          0
cpu0_L2C WRITE        ACCESS:     254126  HIT:     102775  MISS:     151351  iACCESS:          0  iHIT:          0  iMISS:          0  dACCESS:     254126  dHIT:     102775  dMISS:     151351  itACCESS:          0  itHIT:          0  itMISS:          0  dtACCESS:          0  dtHIT:          0  dtMISS:          0
cpu0_L2C TRANSLATION  ACCESS:     244090  HIT:     144964  MISS:      99126  iACCESS:          0  iHIT:          0  iMISS:          0  dACCESS:          0  dHIT:          0  dMISS:          0  itACCESS:      75366  itHIT:      46144  itMISS:      29222  dtACCESS:     168724  dtHIT:      98820  dtMISS:      69904
cpu0_L2C PREFETCH  REQUESTED:    1391285  ISSUED:    1391234  CROSSED:          0  USEFUL:     371917  USELESS:     384283
cpu0_L2C AVERAGE iMISS LATENCY: 22.2543 cycles
cpu0_L2C AVERAGE dMISS LATENCY: 40.19 cycles
cpu0_L2C AVERAGE itMISS LATENCY: 0.784348 cycles
cpu0_L2C AVERAGE dtMISS LATENCY: 2.06244 cycles
cpu0_L2C PAGE CROSSINGS (TLB HIT):         0 
cpu0_L2C PAGE CROSSINGS (TLB MISS):         0 
cpu0_L2C AVERAGE MISS LATENCY: 65.2911 cycles
LLC TOTAL       ACCESS:    5353657  HIT:    3761560  MISS:    1592097  iACCESS:    2078975  iHIT:    1526389  iMISS:     552586  dACCESS:    3175556  dHIT:    2210312  dMISS:     965244  itACCESS:      29222  itHIT:       7923  itMISS:      21299  dtACCESS:      69904  dtHIT:      16936  dtMISS:      52968
LLC LOAD         ACCESS:    1744984  HIT:    1384700  MISS:     360284  iACCESS:     526333  iHIT:     411913  iMISS:     114420  dACCESS:    1218651  dHIT:     972787  dMISS:     245864  itACCESS:          0  itHIT:          0  itMISS:          0  dtACCESS:          0  dtHIT:          0  dtMISS:          0
LLC RFO          ACCESS:     135761  HIT:      74664  MISS:      61097  iACCESS:          0  iHIT:          0  iMISS:          0  dACCESS:     135761  dHIT:      74664  dMISS:      61097  itACCESS:          0  itHIT:          0  itMISS:          0  dtACCESS:          0  dtHIT:          0  dtMISS:          0
LLC PREFETCH     ACCESS:    3165300  HIT:    2070702  MISS:    1094598  iACCESS:    1552642  iHIT:    1114476  iMISS:     438166  dACCESS:    1612658  dHIT:     956226  dMISS:     656432  itACCESS:          0  itHIT:          0  itMISS:          0  dtACCESS:          0  dtHIT:          0  dtMISS:          0
LLC WRITE        ACCESS:     208486  HIT:     206635  MISS:       1851  iACCESS:          0  iHIT:          0  iMISS:          0  dACCESS:     208486  dHIT:     206635  dMISS:       1851  itACCESS:          0  itHIT:          0  itMISS:          0  dtACCESS:          0  dtHIT:          0  dtMISS:          0
LLC TRANSLATION  ACCESS:      99126  HIT:      24859  MISS:      74267  iACCESS:          0  iHIT:          0  iMISS:          0  dACCESS:          0  dHIT:          0  dMISS:          0  itACCESS:      29222  itHIT:       7923  itMISS:      21299  dtACCESS:      69904  dtHIT:      16936  dtMISS:      52968
LLC PREFETCH  REQUESTED:          0  ISSUED:          0  CROSSED:          0  USEFUL:          0  USELESS:          0
LLC AVERAGE iMISS LATENCY: 51.2274 cycles
LLC AVERAGE dMISS LATENCY: 103.415 cycles
LLC AVERAGE itMISS LATENCY: 2.3371 cycles
LLC AVERAGE dtMISS LATENCY: 6.23108 cycles
LLC PAGE CROSSINGS (TLB HIT):         0 
LLC PAGE CROSSINGS (TLB MISS):         0 
LLC AVERAGE MISS LATENCY: 163.211 cycles

PageTableWalker TOTAL       ACCESS:     105204  
PageTableWalker AVERAGE LATENCY: 3.88791 cycles
PageTableWalker TOTAL LATENCY: 409023 cycles

DRAM Statistics
Channel 0
 RQ ROW_BUFFER_HIT:     445459
  ROW_BUFFER_MISS:    1131162
 AVG DBUS CONGESTED CYCLE:    3.63896
 WQ ROW_BUFFER_HIT:      37311
  ROW_BUFFER_MISS:      33206  FULL:          0

