last_page:0x200000000000000
VMEM_RES_CAP:0x100000
PAGE_SIZE:4096
LOG2_PAGE_SIZE:12
LOG2_PAGE_TABLE_SIZE:9
page_table_levels:5
WARNING: physical memory size is smaller than virtual memory size
FDiP enabled with aggresivity 16

*** ChampSim Multicore Out-of-Order Simulator ***

Warmup Instructions: 50000000
Simulation Instructions: 100000000
Number of CPUs: 1
Small page size: 4096
Large page size: 2097152

CPU 0 Bimodal branch predictor
Basic BTB sets: 1024 ways: 8 indirect buffer size: 4096 RAS size: 64
Instruction page size distrubution: 0
Loading instruction page size distribution from /home/bsc/bsc018186/scratch/itp_asplos25_AE/dump/srv704_ap.pdst
Data page size distrubution: 0
Loading data page size distribution from /home/bsc/bsc018186/scratch/itp_asplos25_AE/dump/srv704_ap.pdst
cpu0_L2C IP-based stride prefetcher
cpu0_L2C is using PTP replacement policy:
	TLB_STRESS_THRESHOLD:0
	PTE_EVICTION_RATIO:0
cpu0_L1D next line prefetcher
CHiRPing...
cpu0_L1I next line prefetcher
Off-chip DRAM Size: 4 GiB Channels: 1 Width: 64-bit Data Rate: 3200 MT/s
Heartbeat CPU 0 instructions: 10000001 cycles: 2500194 heartbeat IPC: 3.9997 cumulative IPC: 3.9997 (Simulation time: 0 hr 0 min 37 sec) 
Heartbeat CPU 0 instructions: 20000002 cycles: 5000227 heartbeat IPC: 3.99995 cumulative IPC: 3.99982 (Simulation time: 0 hr 1 min 17 sec) 
Heartbeat CPU 0 instructions: 30000003 cycles: 7500234 heartbeat IPC: 3.99999 cumulative IPC: 3.99988 (Simulation time: 0 hr 1 min 57 sec) 
Heartbeat CPU 0 instructions: 40000001 cycles: 10000249 heartbeat IPC: 3.99998 cumulative IPC: 3.99991 (Simulation time: 0 hr 2 min 37 sec) 
Heartbeat CPU 0 instructions: 50000002 cycles: 12500309 heartbeat IPC: 3.99991 cumulative IPC: 3.99991 (Simulation time: 0 hr 3 min 18 sec) 
Warmup finished CPU 0 instructions: 50000002 cycles: 12500310 cumulative IPC: 3.99991 (Simulation time: 0 hr 3 min 18 sec) 

Warmup complete CPU 0 instructions: 50000002 cycles: 12500310 (Simulation time: 0 hr 3 min 18 sec) 

Heartbeat CPU 0 instructions: 60000001 cycles: 27223040 heartbeat IPC: 0.679222 cumulative IPC: 0.679222 (Simulation time: 0 hr 4 min 24 sec) 
Heartbeat CPU 0 instructions: 70000004 cycles: 33403679 heartbeat IPC: 1.61796 cumulative IPC: 0.956784 (Simulation time: 0 hr 5 min 18 sec) 
Heartbeat CPU 0 instructions: 80000002 cycles: 48070542 heartbeat IPC: 0.681809 cumulative IPC: 0.843402 (Simulation time: 0 hr 6 min 24 sec) 
Heartbeat CPU 0 instructions: 90000003 cycles: 64023818 heartbeat IPC: 0.626831 cumulative IPC: 0.776345 (Simulation time: 0 hr 7 min 32 sec) 
Heartbeat CPU 0 instructions: 100000001 cycles: 79403302 heartbeat IPC: 0.650217 cumulative IPC: 0.747351 (Simulation time: 0 hr 8 min 38 sec) 
*** Reached end of trace: /gpfs/projects/bsc18/MN4/bsc18/romol/ChampSim/traces/qualcomm_srv/srv704_ap.champsimtrace.xz
Heartbeat CPU 0 instructions: 110000002 cycles: 95836288 heartbeat IPC: 0.608533 cumulative IPC: 0.719978 (Simulation time: 0 hr 9 min 46 sec) 
Heartbeat CPU 0 instructions: 120000004 cycles: 112078800 heartbeat IPC: 0.615669 cumulative IPC: 0.702964 (Simulation time: 0 hr 10 min 53 sec) 
Heartbeat CPU 0 instructions: 130000002 cycles: 127838445 heartbeat IPC: 0.634532 cumulative IPC: 0.693613 (Simulation time: 0 hr 11 min 59 sec) 
Heartbeat CPU 0 instructions: 140000001 cycles: 143129979 heartbeat IPC: 0.653957 cumulative IPC: 0.688971 (Simulation time: 0 hr 13 min 5 sec) 
Heartbeat CPU 0 instructions: 150000000 cycles: 159078040 heartbeat IPC: 0.627036 cumulative IPC: 0.682232 (Simulation time: 0 hr 14 min 14 sec) 
Simulation finished CPU 0 instructions: 100000003 cycles: 146577732 cumulative IPC: 0.682232 (Simulation time: 0 hr 14 min 14 sec) 

Simulation complete CPU 0 instructions: 100000003 cycles: 146577732 (Simulation time: 0 hr 14 min 14 sec) 


ChampSim completed all CPUs

Saving instructions large page distribution to /home/bsc/bsc018186/scratch/itp_asplos25_AE/dump/srv704_ap.pdst...
Saving data large page distribution to /home/bsc/bsc018186/scratch/itp_asplos25_AE/dump/srv704_ap.pdst...
=== Simulation ===
CPU 0 runs /gpfs/projects/bsc18/MN4/bsc18/romol/ChampSim/traces/qualcomm_srv/srv704_ap.champsimtrace.xz

Region of Interest Statistics

CPU 0 cumulative IPC: 0.682232 instructions: 100000003 cycles: 146577732
CPU 0 Branch Prediction Accuracy: 85.2402% MPKI: 28.2805 Average ROB Occupancy at Mispredict: 13.6474
Branch type MPKI
BRANCH_DIRECT_JUMP: 0.94631
BRANCH_INDIRECT: 14.5697
BRANCH_CONDITIONAL: 9.29308
BRANCH_DIRECT_CALL: 1.7075
BRANCH_INDIRECT_CALL: 0.53942
BRANCH_RETURN: 1.22449

Instructions large pages: 0
Instructions small pages: 10107
Large page distribution for instructions: 0%

Data large pages: 0
Data small pages: 9080
Large page distribution for data: 0%

cpu0_L1I TOTAL       ACCESS:   34346502  HIT:   27353922  MISS:    6992580  iACCESS:   34346502  iHIT:   27353922  iMISS:    6992580  dACCESS:          0  dHIT:          0  dMISS:          0  itACCESS:          0  itHIT:          0  itMISS:          0  dtACCESS:          0  dtHIT:          0  dtMISS:          0
cpu0_L1I LOAD         ACCESS:    9314559  HIT:    7352826  MISS:    1961733  iACCESS:    9314559  iHIT:    7352826  iMISS:    1961733  dACCESS:          0  dHIT:          0  dMISS:          0  itACCESS:          0  itHIT:          0  itMISS:          0  dtACCESS:          0  dtHIT:          0  dtMISS:          0
cpu0_L1I RFO          ACCESS:          0  HIT:          0  MISS:          0  iACCESS:          0  iHIT:          0  iMISS:          0  dACCESS:          0  dHIT:          0  dMISS:          0  itACCESS:          0  itHIT:          0  itMISS:          0  dtACCESS:          0  dtHIT:          0  dtMISS:          0
cpu0_L1I PREFETCH     ACCESS:   25031943  HIT:   20001096  MISS:    5030847  iACCESS:   25031943  iHIT:   20001096  iMISS:    5030847  dACCESS:          0  dHIT:          0  dMISS:          0  itACCESS:          0  itHIT:          0  itMISS:          0  dtACCESS:          0  dtHIT:          0  dtMISS:          0
cpu0_L1I WRITE        ACCESS:          0  HIT:          0  MISS:          0  iACCESS:          0  iHIT:          0  iMISS:          0  dACCESS:          0  dHIT:          0  dMISS:          0  itACCESS:          0  itHIT:          0  itMISS:          0  dtACCESS:          0  dtHIT:          0  dtMISS:          0
cpu0_L1I TRANSLATION  ACCESS:          0  HIT:          0  MISS:          0  iACCESS:          0  iHIT:          0  iMISS:          0  dACCESS:          0  dHIT:          0  dMISS:          0  itACCESS:          0  itHIT:          0  itMISS:          0  dtACCESS:          0  dtHIT:          0  dtMISS:          0
cpu0_L1I PREFETCH  REQUESTED:   27312087  ISSUED:   27312087  CROSSED:          0  USEFUL:    1723512  USELESS:     561011
cpu0_L1I AVERAGE iMISS LATENCY: 13.346 cycles
cpu0_L1I AVERAGE dMISS LATENCY: 0 cycles
cpu0_L1I AVERAGE itMISS LATENCY: 0 cycles
cpu0_L1I AVERAGE dtMISS LATENCY: 0 cycles
cpu0_L1I PAGE CROSSINGS (TLB HIT):         0 
cpu0_L1I PAGE CROSSINGS (TLB MISS):         0 
cpu0_L1I AVERAGE MISS LATENCY: 13.346 cycles
cpu0_ITLB TOTAL       ACCESS:   28751896  HIT:   27017953  MISS:    1733943  iACCESS:   28751896  iHIT:   27017953  iMISS:    1733943  dACCESS:          0  dHIT:          0  dMISS:          0  itACCESS:          0  itHIT:          0  itMISS:          0  dtACCESS:          0  dtHIT:          0  dtMISS:          0
cpu0_ITLB LOAD         ACCESS:   28751896  HIT:   27017953  MISS:    1733943  iACCESS:   28751896  iHIT:   27017953  iMISS:    1733943  dACCESS:          0  dHIT:          0  dMISS:          0  itACCESS:          0  itHIT:          0  itMISS:          0  dtACCESS:          0  dtHIT:          0  dtMISS:          0
cpu0_ITLB RFO          ACCESS:          0  HIT:          0  MISS:          0  iACCESS:          0  iHIT:          0  iMISS:          0  dACCESS:          0  dHIT:          0  dMISS:          0  itACCESS:          0  itHIT:          0  itMISS:          0  dtACCESS:          0  dtHIT:          0  dtMISS:          0
cpu0_ITLB PREFETCH     ACCESS:          0  HIT:          0  MISS:          0  iACCESS:          0  iHIT:          0  iMISS:          0  dACCESS:          0  dHIT:          0  dMISS:          0  itACCESS:          0  itHIT:          0  itMISS:          0  dtACCESS:          0  dtHIT:          0  dtMISS:          0
cpu0_ITLB WRITE        ACCESS:          0  HIT:          0  MISS:          0  iACCESS:          0  iHIT:          0  iMISS:          0  dACCESS:          0  dHIT:          0  dMISS:          0  itACCESS:          0  itHIT:          0  itMISS:          0  dtACCESS:          0  dtHIT:          0  dtMISS:          0
cpu0_ITLB TRANSLATION  ACCESS:          0  HIT:          0  MISS:          0  iACCESS:          0  iHIT:          0  iMISS:          0  dACCESS:          0  dHIT:          0  dMISS:          0  itACCESS:          0  itHIT:          0  itMISS:          0  dtACCESS:          0  dtHIT:          0  dtMISS:          0
cpu0_ITLB PREFETCH  REQUESTED:          0  ISSUED:          0  CROSSED:          0  USEFUL:     282253  USELESS:      57202
cpu0_ITLB AVERAGE iMISS LATENCY: 5.43663 cycles
cpu0_ITLB AVERAGE dMISS LATENCY: 0 cycles
cpu0_ITLB AVERAGE itMISS LATENCY: 0 cycles
cpu0_ITLB AVERAGE dtMISS LATENCY: 0 cycles
cpu0_ITLB PAGE CROSSINGS (TLB HIT):         0 
cpu0_ITLB PAGE CROSSINGS (TLB MISS):         0 
cpu0_ITLB AVERAGE MISS LATENCY: 5.43663 cycles
cpu0_DTLB TOTAL       ACCESS:   29466874  HIT:   25149262  MISS:    4317612  iACCESS:          0  iHIT:          0  iMISS:          0  dACCESS:   29466874  dHIT:   25149262  dMISS:    4317612  itACCESS:          0  itHIT:          0  itMISS:          0  dtACCESS:          0  dtHIT:          0  dtMISS:          0
cpu0_DTLB LOAD         ACCESS:   29466874  HIT:   25149262  MISS:    4317612  iACCESS:          0  iHIT:          0  iMISS:          0  dACCESS:   29466874  dHIT:   25149262  dMISS:    4317612  itACCESS:          0  itHIT:          0  itMISS:          0  dtACCESS:          0  dtHIT:          0  dtMISS:          0
cpu0_DTLB RFO          ACCESS:          0  HIT:          0  MISS:          0  iACCESS:          0  iHIT:          0  iMISS:          0  dACCESS:          0  dHIT:          0  dMISS:          0  itACCESS:          0  itHIT:          0  itMISS:          0  dtACCESS:          0  dtHIT:          0  dtMISS:          0
cpu0_DTLB PREFETCH     ACCESS:          0  HIT:          0  MISS:          0  iACCESS:          0  iHIT:          0  iMISS:          0  dACCESS:          0  dHIT:          0  dMISS:          0  itACCESS:          0  itHIT:          0  itMISS:          0  dtACCESS:          0  dtHIT:          0  dtMISS:          0
cpu0_DTLB WRITE        ACCESS:          0  HIT:          0  MISS:          0  iACCESS:          0  iHIT:          0  iMISS:          0  dACCESS:          0  dHIT:          0  dMISS:          0  itACCESS:          0  itHIT:          0  itMISS:          0  dtACCESS:          0  dtHIT:          0  dtMISS:          0
cpu0_DTLB TRANSLATION  ACCESS:          0  HIT:          0  MISS:          0  iACCESS:          0  iHIT:          0  iMISS:          0  dACCESS:          0  dHIT:          0  dMISS:          0  itACCESS:          0  itHIT:          0  itMISS:          0  dtACCESS:          0  dtHIT:          0  dtMISS:          0
cpu0_DTLB PREFETCH  REQUESTED:          0  ISSUED:          0  CROSSED:          0  USEFUL:          0  USELESS:          0
cpu0_DTLB AVERAGE iMISS LATENCY: 0 cycles
cpu0_DTLB AVERAGE dMISS LATENCY: 8.7012 cycles
cpu0_DTLB AVERAGE itMISS LATENCY: 0 cycles
cpu0_DTLB AVERAGE dtMISS LATENCY: 0 cycles
cpu0_DTLB PAGE CROSSINGS (TLB HIT):         0 
cpu0_DTLB PAGE CROSSINGS (TLB MISS):         0 
cpu0_DTLB AVERAGE MISS LATENCY: 8.7012 cycles
cpu0_STLB TOTAL       ACCESS:    2571205  HIT:    2414942  MISS:     156263  iACCESS:     339458  iHIT:     285295  iMISS:      54163  dACCESS:    2231747  dHIT:    2129647  dMISS:     102100  itACCESS:          0  itHIT:          0  itMISS:          0  dtACCESS:          0  dtHIT:          0  dtMISS:          0
cpu0_STLB LOAD         ACCESS:    2571205  HIT:    2414942  MISS:     156263  iACCESS:     339458  iHIT:     285295  iMISS:      54163  dACCESS:    2231747  dHIT:    2129647  dMISS:     102100  itACCESS:          0  itHIT:          0  itMISS:          0  dtACCESS:          0  dtHIT:          0  dtMISS:          0
cpu0_STLB RFO          ACCESS:          0  HIT:          0  MISS:          0  iACCESS:          0  iHIT:          0  iMISS:          0  dACCESS:          0  dHIT:          0  dMISS:          0  itACCESS:          0  itHIT:          0  itMISS:          0  dtACCESS:          0  dtHIT:          0  dtMISS:          0
cpu0_STLB PREFETCH     ACCESS:          0  HIT:          0  MISS:          0  iACCESS:          0  iHIT:          0  iMISS:          0  dACCESS:          0  dHIT:          0  dMISS:          0  itACCESS:          0  itHIT:          0  itMISS:          0  dtACCESS:          0  dtHIT:          0  dtMISS:          0
cpu0_STLB WRITE        ACCESS:          0  HIT:          0  MISS:          0  iACCESS:          0  iHIT:          0  iMISS:          0  dACCESS:          0  dHIT:          0  dMISS:          0  itACCESS:          0  itHIT:          0  itMISS:          0  dtACCESS:          0  dtHIT:          0  dtMISS:          0
cpu0_STLB TRANSLATION  ACCESS:          0  HIT:          0  MISS:          0  iACCESS:          0  iHIT:          0  iMISS:          0  dACCESS:          0  dHIT:          0  dMISS:          0  itACCESS:          0  itHIT:          0  itMISS:          0  dtACCESS:          0  dtHIT:          0  dtMISS:          0
cpu0_STLB PREFETCH  REQUESTED:          0  ISSUED:          0  CROSSED:          0  USEFUL:          0  USELESS:          0
cpu0_STLB AVERAGE iMISS LATENCY: 43.1379 cycles
cpu0_STLB AVERAGE dMISS LATENCY: 125.441 cycles
cpu0_STLB AVERAGE itMISS LATENCY: 0 cycles
cpu0_STLB AVERAGE dtMISS LATENCY: 0 cycles
cpu0_STLB PAGE CROSSINGS (TLB HIT):         0 
cpu0_STLB PAGE CROSSINGS (TLB MISS):         0 
cpu0_STLB AVERAGE MISS LATENCY: 168.579 cycles
cpu0_L1D TOTAL       ACCESS:   43887070  HIT:   38684690  MISS:    5202380  iACCESS:          0  iHIT:          0  iMISS:          0  dACCESS:   43670302  dHIT:   38665728  dMISS:    5004574  itACCESS:      58302  itHIT:       8755  itMISS:      49547  dtACCESS:     158466  dtHIT:      10207  dtMISS:     148259
cpu0_L1D LOAD         ACCESS:   21054392  HIT:   18033592  MISS:    3020800  iACCESS:          0  iHIT:          0  iMISS:          0  dACCESS:   21054392  dHIT:   18033592  dMISS:    3020800  itACCESS:          0  itHIT:          0  itMISS:          0  dtACCESS:          0  dtHIT:          0  dtMISS:          0
cpu0_L1D RFO          ACCESS:          0  HIT:          0  MISS:          0  iACCESS:          0  iHIT:          0  iMISS:          0  dACCESS:          0  dHIT:          0  dMISS:          0  itACCESS:          0  itHIT:          0  itMISS:          0  dtACCESS:          0  dtHIT:          0  dtMISS:          0
cpu0_L1D PREFETCH     ACCESS:   12784459  HIT:   11212413  MISS:    1572046  iACCESS:          0  iHIT:          0  iMISS:          0  dACCESS:   12784459  dHIT:   11212413  dMISS:    1572046  itACCESS:          0  itHIT:          0  itMISS:          0  dtACCESS:          0  dtHIT:          0  dtMISS:          0
cpu0_L1D WRITE        ACCESS:    9831451  HIT:    9419723  MISS:     411728  iACCESS:          0  iHIT:          0  iMISS:          0  dACCESS:    9831451  dHIT:    9419723  dMISS:     411728  itACCESS:          0  itHIT:          0  itMISS:          0  dtACCESS:          0  dtHIT:          0  dtMISS:          0
cpu0_L1D TRANSLATION  ACCESS:     216768  HIT:      18962  MISS:     197806  iACCESS:          0  iHIT:          0  iMISS:          0  dACCESS:          0  dHIT:          0  dMISS:          0  itACCESS:      58302  itHIT:       8755  itMISS:      49547  dtACCESS:     158466  dtHIT:      10207  dtMISS:     148259
cpu0_L1D PREFETCH  REQUESTED:   21054392  ISSUED:   17461320  CROSSED:          0  USEFUL:     273916  USELESS:     829533
cpu0_L1D AVERAGE iMISS LATENCY: 0 cycles
cpu0_L1D AVERAGE dMISS LATENCY: 24.4866 cycles
cpu0_L1D AVERAGE itMISS LATENCY: 1.20341 cycles
cpu0_L1D AVERAGE dtMISS LATENCY: 3.3514 cycles
cpu0_L1D PAGE CROSSINGS (TLB HIT):         0 
cpu0_L1D PAGE CROSSINGS (TLB MISS):         0 
cpu0_L1D AVERAGE MISS LATENCY: 29.0414 cycles
cpu0_L2C TOTAL       ACCESS:    8025048  HIT:    5346840  MISS:    2678208  iACCESS:    2950849  iHIT:    1964654  iMISS:     986195  dACCESS:    4890461  dHIT:    3355610  dMISS:    1534851  itACCESS:      49547  itHIT:       8958  itMISS:      40589  dtACCESS:     134191  dtHIT:      17618  dtMISS:     116573
cpu0_L2C LOAD         ACCESS:    3047009  HIT:    2425546  MISS:     621463  iACCESS:     701319  iHIT:     491984  iMISS:     209335  dACCESS:    2345690  dHIT:    1933562  dMISS:     412128  itACCESS:          0  itHIT:          0  itMISS:          0  dtACCESS:          0  dtHIT:          0  dtMISS:          0
cpu0_L2C RFO          ACCESS:     162738  HIT:      84725  MISS:      78013  iACCESS:          0  iHIT:          0  iMISS:          0  dACCESS:     162738  dHIT:      84725  dMISS:      78013  itACCESS:          0  itHIT:          0  itMISS:          0  dtACCESS:          0  dtHIT:          0  dtMISS:          0
cpu0_L2C PREFETCH     ACCESS:    4377498  HIT:    2558344  MISS:    1819154  iACCESS:    2249530  iHIT:    1472670  iMISS:     776860  dACCESS:    2127968  dHIT:    1085674  dMISS:    1042294  itACCESS:          0  itHIT:          0  itMISS:          0  dtACCESS:          0  dtHIT:          0  dtMISS:          0
cpu0_L2C WRITE        ACCESS:     254065  HIT:     251649  MISS:       2416  iACCESS:          0  iHIT:          0  iMISS:          0  dACCESS:     254065  dHIT:     251649  dMISS:       2416  itACCESS:          0  itHIT:          0  itMISS:          0  dtACCESS:          0  dtHIT:          0  dtMISS:          0
cpu0_L2C TRANSLATION  ACCESS:     183738  HIT:      26576  MISS:     157162  iACCESS:          0  iHIT:          0  iMISS:          0  dACCESS:          0  dHIT:          0  dMISS:          0  itACCESS:      49547  itHIT:       8958  itMISS:      40589  dtACCESS:     134191  dtHIT:      17618  dtMISS:     116573
cpu0_L2C PREFETCH  REQUESTED:    1254818  ISSUED:    1254732  CROSSED:          0  USEFUL:     296984  USELESS:     214172
cpu0_L2C AVERAGE iMISS LATENCY: 24.8385 cycles
cpu0_L2C AVERAGE dMISS LATENCY: 47.2753 cycles
cpu0_L2C AVERAGE itMISS LATENCY: 2.15546 cycles
cpu0_L2C AVERAGE dtMISS LATENCY: 6.01114 cycles
cpu0_L2C PAGE CROSSINGS (TLB HIT):         0 
cpu0_L2C PAGE CROSSINGS (TLB MISS):         0 
cpu0_L2C AVERAGE MISS LATENCY: 80.2803 cycles
LLC TOTAL       ACCESS:    2693884  HIT:    1647245  MISS:    1046639  iACCESS:     933743  iHIT:     601623  iMISS:     332120  dACCESS:    1602979  dHIT:     993651  dMISS:     609328  itACCESS:      40589  itHIT:      11649  itMISS:      28940  dtACCESS:     116573  dtHIT:      40322  dtMISS:      76251
LLC LOAD         ACCESS:     619311  HIT:     393681  MISS:     225630  iACCESS:     208215  iHIT:     136304  iMISS:      71911  dACCESS:     411096  dHIT:     257377  dMISS:     153719  itACCESS:          0  itHIT:          0  itMISS:          0  dtACCESS:          0  dtHIT:          0  dtMISS:          0
LLC RFO          ACCESS:      78004  HIT:      42096  MISS:      35908  iACCESS:          0  iHIT:          0  iMISS:          0  dACCESS:      78004  dHIT:      42096  dMISS:      35908  itACCESS:          0  itHIT:          0  itMISS:          0  dtACCESS:          0  dtHIT:          0  dtMISS:          0
LLC PREFETCH     ACCESS:    1717303  HIT:    1042942  MISS:     674361  iACCESS:     725528  iHIT:     465319  iMISS:     260209  dACCESS:     991775  dHIT:     577623  dMISS:     414152  itACCESS:          0  itHIT:          0  itMISS:          0  dtACCESS:          0  dtHIT:          0  dtMISS:          0
LLC WRITE        ACCESS:     122104  HIT:     116555  MISS:       5549  iACCESS:          0  iHIT:          0  iMISS:          0  dACCESS:     122104  dHIT:     116555  dMISS:       5549  itACCESS:          0  itHIT:          0  itMISS:          0  dtACCESS:          0  dtHIT:          0  dtMISS:          0
LLC TRANSLATION  ACCESS:     157162  HIT:      51971  MISS:     105191  iACCESS:          0  iHIT:          0  iMISS:          0  dACCESS:          0  dHIT:          0  dMISS:          0  itACCESS:      40589  itHIT:      11649  itMISS:      28940  dtACCESS:     116573  dtHIT:      40322  dtMISS:      76251
LLC PREFETCH  REQUESTED:          0  ISSUED:          0  CROSSED:          0  USEFUL:          0  USELESS:          0
LLC AVERAGE iMISS LATENCY: 46.2069 cycles
LLC AVERAGE dMISS LATENCY: 93.6664 cycles
LLC AVERAGE itMISS LATENCY: 4.75321 cycles
LLC AVERAGE dtMISS LATENCY: 13.1997 cycles
LLC PAGE CROSSINGS (TLB HIT):         0 
LLC PAGE CROSSINGS (TLB MISS):         0 
LLC AVERAGE MISS LATENCY: 157.827 cycles

PageTableWalker TOTAL       ACCESS:      90236  
PageTableWalker AVERAGE LATENCY: 5.25035 cycles
PageTableWalker TOTAL LATENCY: 473770 cycles

DRAM Statistics
Channel 0
 RQ ROW_BUFFER_HIT:     287914
  ROW_BUFFER_MISS:     752453
 AVG DBUS CONGESTED CYCLE:    3.62343
 WQ ROW_BUFFER_HIT:      19466
  ROW_BUFFER_MISS:      18439  FULL:          0

