last_page:0x200000000000000
VMEM_RES_CAP:0x100000
PAGE_SIZE:4096
LOG2_PAGE_SIZE:12
LOG2_PAGE_TABLE_SIZE:9
page_table_levels:5
WARNING: physical memory size is smaller than virtual memory size
FDiP enabled with aggresivity 16

*** ChampSim Multicore Out-of-Order Simulator ***

Warmup Instructions: 50000000
Simulation Instructions: 100000000
Number of CPUs: 1
Small page size: 4096
Large page size: 2097152

CPU 0 Bimodal branch predictor
Basic BTB sets: 1024 ways: 8 indirect buffer size: 4096 RAS size: 64
Instruction page size distrubution: 0
Loading instruction page size distribution from /home/bsc/bsc018186/scratch/itp_asplos25_AE/dump/srv715_ap.pdst
Data page size distrubution: 0
Loading data page size distribution from /home/bsc/bsc018186/scratch/itp_asplos25_AE/dump/srv715_ap.pdst
cpu0_L2C IP-based stride prefetcher
cpu0_L2C is using PTP replacement policy:
	TLB_STRESS_THRESHOLD:0
	PTE_EVICTION_RATIO:0
cpu0_L1D next line prefetcher
cpu0_L1I next line prefetcher
Off-chip DRAM Size: 4 GiB Channels: 1 Width: 64-bit Data Rate: 3200 MT/s
Heartbeat CPU 0 instructions: 10000003 cycles: 2500952 heartbeat IPC: 3.99848 cumulative IPC: 3.99848 (Simulation time: 0 hr 0 min 38 sec) 
Heartbeat CPU 0 instructions: 20000002 cycles: 5002699 heartbeat IPC: 3.99721 cumulative IPC: 3.99785 (Simulation time: 0 hr 1 min 18 sec) 
Heartbeat CPU 0 instructions: 30000000 cycles: 7502893 heartbeat IPC: 3.99969 cumulative IPC: 3.99846 (Simulation time: 0 hr 1 min 59 sec) 
Heartbeat CPU 0 instructions: 40000000 cycles: 10002957 heartbeat IPC: 3.9999 cumulative IPC: 3.99882 (Simulation time: 0 hr 2 min 40 sec) 
Heartbeat CPU 0 instructions: 50000003 cycles: 12503033 heartbeat IPC: 3.99988 cumulative IPC: 3.99903 (Simulation time: 0 hr 3 min 21 sec) 
Warmup finished CPU 0 instructions: 50000003 cycles: 12503034 cumulative IPC: 3.99903 (Simulation time: 0 hr 3 min 21 sec) 

Warmup complete CPU 0 instructions: 50000003 cycles: 12503034 (Simulation time: 0 hr 3 min 21 sec) 

Heartbeat CPU 0 instructions: 60000002 cycles: 34102491 heartbeat IPC: 0.462975 cumulative IPC: 0.462975 (Simulation time: 0 hr 4 min 35 sec) 
Heartbeat CPU 0 instructions: 70000000 cycles: 55062048 heartbeat IPC: 0.47711 cumulative IPC: 0.469936 (Simulation time: 0 hr 5 min 47 sec) 
Heartbeat CPU 0 instructions: 80000000 cycles: 75926266 heartbeat IPC: 0.47929 cumulative IPC: 0.473013 (Simulation time: 0 hr 7 min 0 sec) 
Heartbeat CPU 0 instructions: 90000001 cycles: 81693133 heartbeat IPC: 1.73405 cumulative IPC: 0.578118 (Simulation time: 0 hr 7 min 52 sec) 
Heartbeat CPU 0 instructions: 100000000 cycles: 103181290 heartbeat IPC: 0.465373 cumulative IPC: 0.551401 (Simulation time: 0 hr 9 min 5 sec) 
*** Reached end of trace: /gpfs/projects/bsc18/MN4/bsc18/romol/ChampSim/traces/qualcomm_srv/srv715_ap.champsimtrace.xz
Heartbeat CPU 0 instructions: 110000004 cycles: 126000130 heartbeat IPC: 0.438235 cumulative IPC: 0.528648 (Simulation time: 0 hr 10 min 20 sec) 
Heartbeat CPU 0 instructions: 120000000 cycles: 148012942 heartbeat IPC: 0.454281 cumulative IPC: 0.516568 (Simulation time: 0 hr 11 min 33 sec) 
Heartbeat CPU 0 instructions: 130000001 cycles: 170986225 heartbeat IPC: 0.435289 cumulative IPC: 0.504786 (Simulation time: 0 hr 12 min 49 sec) 
Heartbeat CPU 0 instructions: 140000003 cycles: 193370895 heartbeat IPC: 0.446735 cumulative IPC: 0.497601 (Simulation time: 0 hr 14 min 4 sec) 
Heartbeat CPU 0 instructions: 150000001 cycles: 216389338 heartbeat IPC: 0.434435 cumulative IPC: 0.49047 (Simulation time: 0 hr 15 min 19 sec) 
Simulation finished CPU 0 instructions: 100000000 cycles: 203886306 cumulative IPC: 0.49047 (Simulation time: 0 hr 15 min 19 sec) 

Simulation complete CPU 0 instructions: 100000000 cycles: 203886306 (Simulation time: 0 hr 15 min 19 sec) 


ChampSim completed all CPUs

Saving instructions large page distribution to /home/bsc/bsc018186/scratch/itp_asplos25_AE/dump/srv715_ap.pdst...
Saving data large page distribution to /home/bsc/bsc018186/scratch/itp_asplos25_AE/dump/srv715_ap.pdst...
=== Simulation ===
CPU 0 runs /gpfs/projects/bsc18/MN4/bsc18/romol/ChampSim/traces/qualcomm_srv/srv715_ap.champsimtrace.xz

Region of Interest Statistics

CPU 0 cumulative IPC: 0.49047 instructions: 100000000 cycles: 203886306
CPU 0 Branch Prediction Accuracy: 82.4813% MPKI: 33.9338 Average ROB Occupancy at Mispredict: 11.2739
Branch type MPKI
BRANCH_DIRECT_JUMP: 1.25525
BRANCH_INDIRECT: 17.3725
BRANCH_CONDITIONAL: 10.6191
BRANCH_DIRECT_CALL: 2.32747
BRANCH_INDIRECT_CALL: 0.698961
BRANCH_RETURN: 1.66062

Instructions large pages: 0
Instructions small pages: 1202
Large page distribution for instructions: 0%

Data large pages: 0
Data small pages: 5167
Large page distribution for data: 0%

cpu0_L1I TOTAL       ACCESS:   35072195  HIT:   27868757  MISS:    7203438  iACCESS:   35072195  iHIT:   27868757  iMISS:    7203438  dACCESS:          0  dHIT:          0  dMISS:          0  itACCESS:          0  itHIT:          0  itMISS:          0  dtACCESS:          0  dtHIT:          0  dtMISS:          0
cpu0_L1I LOAD         ACCESS:    9369179  HIT:    7376754  MISS:    1992425  iACCESS:    9369179  iHIT:    7376754  iMISS:    1992425  dACCESS:          0  dHIT:          0  dMISS:          0  itACCESS:          0  itHIT:          0  itMISS:          0  dtACCESS:          0  dtHIT:          0  dtMISS:          0
cpu0_L1I RFO          ACCESS:          0  HIT:          0  MISS:          0  iACCESS:          0  iHIT:          0  iMISS:          0  dACCESS:          0  dHIT:          0  dMISS:          0  itACCESS:          0  itHIT:          0  itMISS:          0  dtACCESS:          0  dtHIT:          0  dtMISS:          0
cpu0_L1I PREFETCH     ACCESS:   25703016  HIT:   20492003  MISS:    5211013  iACCESS:   25703016  iHIT:   20492003  iMISS:    5211013  dACCESS:          0  dHIT:          0  dMISS:          0  itACCESS:          0  itHIT:          0  itMISS:          0  dtACCESS:          0  dtHIT:          0  dtMISS:          0
cpu0_L1I WRITE        ACCESS:          0  HIT:          0  MISS:          0  iACCESS:          0  iHIT:          0  iMISS:          0  dACCESS:          0  dHIT:          0  dMISS:          0  itACCESS:          0  itHIT:          0  itMISS:          0  dtACCESS:          0  dtHIT:          0  dtMISS:          0
cpu0_L1I TRANSLATION  ACCESS:          0  HIT:          0  MISS:          0  iACCESS:          0  iHIT:          0  iMISS:          0  dACCESS:          0  dHIT:          0  dMISS:          0  itACCESS:          0  itHIT:          0  itMISS:          0  dtACCESS:          0  dtHIT:          0  dtMISS:          0
cpu0_L1I PREFETCH  REQUESTED:   27915798  ISSUED:   27915797  CROSSED:          0  USEFUL:    1799020  USELESS:     611392
cpu0_L1I AVERAGE iMISS LATENCY: 20.7308 cycles
cpu0_L1I AVERAGE dMISS LATENCY: 0 cycles
cpu0_L1I AVERAGE itMISS LATENCY: 0 cycles
cpu0_L1I AVERAGE dtMISS LATENCY: 0 cycles
cpu0_L1I PAGE CROSSINGS (TLB HIT):         0 
cpu0_L1I PAGE CROSSINGS (TLB MISS):         0 
cpu0_L1I AVERAGE MISS LATENCY: 20.7308 cycles
cpu0_ITLB TOTAL       ACCESS:   29607390  HIT:   27835204  MISS:    1772186  iACCESS:   29607390  iHIT:   27835204  iMISS:    1772186  dACCESS:          0  dHIT:          0  dMISS:          0  itACCESS:          0  itHIT:          0  itMISS:          0  dtACCESS:          0  dtHIT:          0  dtMISS:          0
cpu0_ITLB LOAD         ACCESS:   29607390  HIT:   27835204  MISS:    1772186  iACCESS:   29607390  iHIT:   27835204  iMISS:    1772186  dACCESS:          0  dHIT:          0  dMISS:          0  itACCESS:          0  itHIT:          0  itMISS:          0  dtACCESS:          0  dtHIT:          0  dtMISS:          0
cpu0_ITLB RFO          ACCESS:          0  HIT:          0  MISS:          0  iACCESS:          0  iHIT:          0  iMISS:          0  dACCESS:          0  dHIT:          0  dMISS:          0  itACCESS:          0  itHIT:          0  itMISS:          0  dtACCESS:          0  dtHIT:          0  dtMISS:          0
cpu0_ITLB PREFETCH     ACCESS:          0  HIT:          0  MISS:          0  iACCESS:          0  iHIT:          0  iMISS:          0  dACCESS:          0  dHIT:          0  dMISS:          0  itACCESS:          0  itHIT:          0  itMISS:          0  dtACCESS:          0  dtHIT:          0  dtMISS:          0
cpu0_ITLB WRITE        ACCESS:          0  HIT:          0  MISS:          0  iACCESS:          0  iHIT:          0  iMISS:          0  dACCESS:          0  dHIT:          0  dMISS:          0  itACCESS:          0  itHIT:          0  itMISS:          0  dtACCESS:          0  dtHIT:          0  dtMISS:          0
cpu0_ITLB TRANSLATION  ACCESS:          0  HIT:          0  MISS:          0  iACCESS:          0  iHIT:          0  iMISS:          0  dACCESS:          0  dHIT:          0  dMISS:          0  itACCESS:          0  itHIT:          0  itMISS:          0  dtACCESS:          0  dtHIT:          0  dtMISS:          0
cpu0_ITLB PREFETCH  REQUESTED:          0  ISSUED:          0  CROSSED:          0  USEFUL:     300533  USELESS:      60632
cpu0_ITLB AVERAGE iMISS LATENCY: 8.35576 cycles
cpu0_ITLB AVERAGE dMISS LATENCY: 0 cycles
cpu0_ITLB AVERAGE itMISS LATENCY: 0 cycles
cpu0_ITLB AVERAGE dtMISS LATENCY: 0 cycles
cpu0_ITLB PAGE CROSSINGS (TLB HIT):         0 
cpu0_ITLB PAGE CROSSINGS (TLB MISS):         0 
cpu0_ITLB AVERAGE MISS LATENCY: 8.35576 cycles
cpu0_DTLB TOTAL       ACCESS:   29909588  HIT:   25619816  MISS:    4289772  iACCESS:          0  iHIT:          0  iMISS:          0  dACCESS:   29909588  dHIT:   25619816  dMISS:    4289772  itACCESS:          0  itHIT:          0  itMISS:          0  dtACCESS:          0  dtHIT:          0  dtMISS:          0
cpu0_DTLB LOAD         ACCESS:   29909588  HIT:   25619816  MISS:    4289772  iACCESS:          0  iHIT:          0  iMISS:          0  dACCESS:   29909588  dHIT:   25619816  dMISS:    4289772  itACCESS:          0  itHIT:          0  itMISS:          0  dtACCESS:          0  dtHIT:          0  dtMISS:          0
cpu0_DTLB RFO          ACCESS:          0  HIT:          0  MISS:          0  iACCESS:          0  iHIT:          0  iMISS:          0  dACCESS:          0  dHIT:          0  dMISS:          0  itACCESS:          0  itHIT:          0  itMISS:          0  dtACCESS:          0  dtHIT:          0  dtMISS:          0
cpu0_DTLB PREFETCH     ACCESS:          0  HIT:          0  MISS:          0  iACCESS:          0  iHIT:          0  iMISS:          0  dACCESS:          0  dHIT:          0  dMISS:          0  itACCESS:          0  itHIT:          0  itMISS:          0  dtACCESS:          0  dtHIT:          0  dtMISS:          0
cpu0_DTLB WRITE        ACCESS:          0  HIT:          0  MISS:          0  iACCESS:          0  iHIT:          0  iMISS:          0  dACCESS:          0  dHIT:          0  dMISS:          0  itACCESS:          0  itHIT:          0  itMISS:          0  dtACCESS:          0  dtHIT:          0  dtMISS:          0
cpu0_DTLB TRANSLATION  ACCESS:          0  HIT:          0  MISS:          0  iACCESS:          0  iHIT:          0  iMISS:          0  dACCESS:          0  dHIT:          0  dMISS:          0  itACCESS:          0  itHIT:          0  itMISS:          0  dtACCESS:          0  dtHIT:          0  dtMISS:          0
cpu0_DTLB PREFETCH  REQUESTED:          0  ISSUED:          0  CROSSED:          0  USEFUL:          0  USELESS:          0
cpu0_DTLB AVERAGE iMISS LATENCY: 0 cycles
cpu0_DTLB AVERAGE dMISS LATENCY: 11.2736 cycles
cpu0_DTLB AVERAGE itMISS LATENCY: 0 cycles
cpu0_DTLB AVERAGE dtMISS LATENCY: 0 cycles
cpu0_DTLB PAGE CROSSINGS (TLB HIT):         0 
cpu0_DTLB PAGE CROSSINGS (TLB MISS):         0 
cpu0_DTLB AVERAGE MISS LATENCY: 11.2736 cycles
cpu0_STLB TOTAL       ACCESS:    2621502  HIT:    2396443  MISS:     225059  iACCESS:     361173  iHIT:     275872  iMISS:      85301  dACCESS:    2260329  dHIT:    2120571  dMISS:     139758  itACCESS:          0  itHIT:          0  itMISS:          0  dtACCESS:          0  dtHIT:          0  dtMISS:          0
cpu0_STLB LOAD         ACCESS:    2621502  HIT:    2396443  MISS:     225059  iACCESS:     361173  iHIT:     275872  iMISS:      85301  dACCESS:    2260329  dHIT:    2120571  dMISS:     139758  itACCESS:          0  itHIT:          0  itMISS:          0  dtACCESS:          0  dtHIT:          0  dtMISS:          0
cpu0_STLB RFO          ACCESS:          0  HIT:          0  MISS:          0  iACCESS:          0  iHIT:          0  iMISS:          0  dACCESS:          0  dHIT:          0  dMISS:          0  itACCESS:          0  itHIT:          0  itMISS:          0  dtACCESS:          0  dtHIT:          0  dtMISS:          0
cpu0_STLB PREFETCH     ACCESS:          0  HIT:          0  MISS:          0  iACCESS:          0  iHIT:          0  iMISS:          0  dACCESS:          0  dHIT:          0  dMISS:          0  itACCESS:          0  itHIT:          0  itMISS:          0  dtACCESS:          0  dtHIT:          0  dtMISS:          0
cpu0_STLB WRITE        ACCESS:          0  HIT:          0  MISS:          0  iACCESS:          0  iHIT:          0  iMISS:          0  dACCESS:          0  dHIT:          0  dMISS:          0  itACCESS:          0  itHIT:          0  itMISS:          0  dtACCESS:          0  dtHIT:          0  dtMISS:          0
cpu0_STLB TRANSLATION  ACCESS:          0  HIT:          0  MISS:          0  iACCESS:          0  iHIT:          0  iMISS:          0  dACCESS:          0  dHIT:          0  dMISS:          0  itACCESS:          0  itHIT:          0  itMISS:          0  dtACCESS:          0  dtHIT:          0  dtMISS:          0
cpu0_STLB PREFETCH  REQUESTED:          0  ISSUED:          0  CROSSED:          0  USEFUL:          0  USELESS:          0
cpu0_STLB AVERAGE iMISS LATENCY: 52.9748 cycles
cpu0_STLB AVERAGE dMISS LATENCY: 133.7 cycles
cpu0_STLB AVERAGE itMISS LATENCY: 0 cycles
cpu0_STLB AVERAGE dtMISS LATENCY: 0 cycles
cpu0_STLB PAGE CROSSINGS (TLB HIT):         0 
cpu0_STLB PAGE CROSSINGS (TLB MISS):         0 
cpu0_STLB AVERAGE MISS LATENCY: 186.675 cycles
cpu0_L1D TOTAL       ACCESS:   45846503  HIT:   39162027  MISS:    6684476  iACCESS:          0  iHIT:          0  iMISS:          0  dACCESS:   45561185  dHIT:   39138984  dMISS:    6422201  itACCESS:      91598  itHIT:      12128  itMISS:      79470  dtACCESS:     193720  dtHIT:      10915  dtMISS:     182805
cpu0_L1D LOAD         ACCESS:   21929020  HIT:   18130826  MISS:    3798194  iACCESS:          0  iHIT:          0  iMISS:          0  dACCESS:   21929020  dHIT:   18130826  dMISS:    3798194  itACCESS:          0  itHIT:          0  itMISS:          0  dtACCESS:          0  dtHIT:          0  dtMISS:          0
cpu0_L1D RFO          ACCESS:          0  HIT:          0  MISS:          0  iACCESS:          0  iHIT:          0  iMISS:          0  dACCESS:          0  dHIT:          0  dMISS:          0  itACCESS:          0  itHIT:          0  itMISS:          0  dtACCESS:          0  dtHIT:          0  dtMISS:          0
cpu0_L1D PREFETCH     ACCESS:   13809992  HIT:   11638837  MISS:    2171155  iACCESS:          0  iHIT:          0  iMISS:          0  dACCESS:   13809992  dHIT:   11638837  dMISS:    2171155  itACCESS:          0  itHIT:          0  itMISS:          0  dtACCESS:          0  dtHIT:          0  dtMISS:          0
cpu0_L1D WRITE        ACCESS:    9822173  HIT:    9369321  MISS:     452852  iACCESS:          0  iHIT:          0  iMISS:          0  dACCESS:    9822173  dHIT:    9369321  dMISS:     452852  itACCESS:          0  itHIT:          0  itMISS:          0  dtACCESS:          0  dtHIT:          0  dtMISS:          0
cpu0_L1D TRANSLATION  ACCESS:     285318  HIT:      23043  MISS:     262275  iACCESS:          0  iHIT:          0  iMISS:          0  dACCESS:          0  dHIT:          0  dMISS:          0  itACCESS:      91598  itHIT:      12128  itMISS:      79470  dtACCESS:     193720  dtHIT:      10915  dtMISS:     182805
cpu0_L1D PREFETCH  REQUESTED:   21929020  ISSUED:   17925723  CROSSED:          0  USEFUL:     282354  USELESS:     879498
cpu0_L1D AVERAGE iMISS LATENCY: 0 cycles
cpu0_L1D AVERAGE dMISS LATENCY: 28.8826 cycles
cpu0_L1D AVERAGE itMISS LATENCY: 1.6737 cycles
cpu0_L1D AVERAGE dtMISS LATENCY: 4.22457 cycles
cpu0_L1D PAGE CROSSINGS (TLB HIT):         0 
cpu0_L1D PAGE CROSSINGS (TLB MISS):         0 
cpu0_L1D AVERAGE MISS LATENCY: 34.7808 cycles
cpu0_L2C TOTAL       ACCESS:    8711868  HIT:    5378910  MISS:    3332958  iACCESS:    3092196  iHIT:    1856697  iMISS:    1235499  dACCESS:    5364909  dHIT:    3485940  dMISS:    1878969  itACCESS:      79334  itHIT:      14425  itMISS:      64909  dtACCESS:     175429  dtHIT:      21848  dtMISS:     153581
cpu0_L2C LOAD         ACCESS:    3331006  HIT:    2566779  MISS:     764227  iACCESS:     714316  iHIT:     460149  iMISS:     254167  dACCESS:    2616690  dHIT:    2106630  dMISS:     510060  itACCESS:          0  itHIT:          0  itMISS:          0  dtACCESS:          0  dtHIT:          0  dtMISS:          0
cpu0_L2C RFO          ACCESS:     171943  HIT:      78322  MISS:      93621  iACCESS:          0  iHIT:          0  iMISS:          0  dACCESS:     171943  dHIT:      78322  dMISS:      93621  itACCESS:          0  itHIT:          0  itMISS:          0  dtACCESS:          0  dtHIT:          0  dtMISS:          0
cpu0_L2C PREFETCH     ACCESS:    4699530  HIT:    2444872  MISS:    2254658  iACCESS:    2377880  iHIT:    1396548  iMISS:     981332  dACCESS:    2321650  dHIT:    1048324  dMISS:    1273326  itACCESS:          0  itHIT:          0  itMISS:          0  dtACCESS:          0  dtHIT:          0  dtMISS:          0
cpu0_L2C WRITE        ACCESS:     254626  HIT:     252664  MISS:       1962  iACCESS:          0  iHIT:          0  iMISS:          0  dACCESS:     254626  dHIT:     252664  dMISS:       1962  itACCESS:          0  itHIT:          0  itMISS:          0  dtACCESS:          0  dtHIT:          0  dtMISS:          0
cpu0_L2C TRANSLATION  ACCESS:     254763  HIT:      36273  MISS:     218490  iACCESS:          0  iHIT:          0  iMISS:          0  dACCESS:          0  dHIT:          0  dMISS:          0  itACCESS:      79334  itHIT:      14425  itMISS:      64909  dtACCESS:     175429  dtHIT:      21848  dtMISS:     153581
cpu0_L2C PREFETCH  REQUESTED:    1391828  ISSUED:    1391667  CROSSED:          0  USEFUL:     327757  USELESS:     271107
cpu0_L2C AVERAGE iMISS LATENCY: 36.7171 cycles
cpu0_L2C AVERAGE dMISS LATENCY: 64.5387 cycles
cpu0_L2C AVERAGE itMISS LATENCY: 3.12243 cycles
cpu0_L2C AVERAGE dtMISS LATENCY: 7.95006 cycles
cpu0_L2C PAGE CROSSINGS (TLB HIT):         0 
cpu0_L2C PAGE CROSSINGS (TLB MISS):         0 
cpu0_L2C AVERAGE MISS LATENCY: 112.329 cycles
LLC TOTAL       ACCESS:    3295857  HIT:    1344478  MISS:    1951379  iACCESS:    1162935  iHIT:     491490  iMISS:     671445  dACCESS:    1914432  dHIT:     811149  dMISS:    1103283  itACCESS:      64909  itHIT:      12903  itMISS:      52006  dtACCESS:     153581  dtHIT:      28936  dtMISS:     124645
LLC LOAD         ACCESS:     757238  HIT:     325411  MISS:     431827  iACCESS:     253067  iHIT:     112349  iMISS:     140718  dACCESS:     504171  dHIT:     213062  dMISS:     291109  itACCESS:          0  itHIT:          0  itMISS:          0  dtACCESS:          0  dtHIT:          0  dtMISS:          0
LLC RFO          ACCESS:      93604  HIT:      34718  MISS:      58886  iACCESS:          0  iHIT:          0  iMISS:          0  dACCESS:      93604  dHIT:      34718  dMISS:      58886  itACCESS:          0  itHIT:          0  itMISS:          0  dtACCESS:          0  dtHIT:          0  dtMISS:          0
LLC PREFETCH     ACCESS:    2086198  HIT:     810021  MISS:    1276177  iACCESS:     909868  iHIT:     379141  iMISS:     530727  dACCESS:    1176330  dHIT:     430880  dMISS:     745450  itACCESS:          0  itHIT:          0  itMISS:          0  dtACCESS:          0  dtHIT:          0  dtMISS:          0
LLC WRITE        ACCESS:     140327  HIT:     132489  MISS:       7838  iACCESS:          0  iHIT:          0  iMISS:          0  dACCESS:     140327  dHIT:     132489  dMISS:       7838  itACCESS:          0  itHIT:          0  itMISS:          0  dtACCESS:          0  dtHIT:          0  dtMISS:          0
LLC TRANSLATION  ACCESS:     218490  HIT:      41839  MISS:     176651  iACCESS:          0  iHIT:          0  iMISS:          0  dACCESS:          0  dHIT:          0  dMISS:          0  itACCESS:      64909  itHIT:      12903  itMISS:      52006  dtACCESS:     153581  dtHIT:      28936  dtMISS:     124645
LLC PREFETCH  REQUESTED:          0  ISSUED:          0  CROSSED:          0  USEFUL:          0  USELESS:          0
LLC AVERAGE iMISS LATENCY: 51.0363 cycles
LLC AVERAGE dMISS LATENCY: 93.3676 cycles
LLC AVERAGE itMISS LATENCY: 4.67677 cycles
LLC AVERAGE dtMISS LATENCY: 12.028 cycles
LLC PAGE CROSSINGS (TLB HIT):         0 
LLC PAGE CROSSINGS (TLB MISS):         0 
LLC AVERAGE MISS LATENCY: 161.109 cycles

PageTableWalker TOTAL       ACCESS:     129939  
PageTableWalker AVERAGE LATENCY: 5.25549 cycles
PageTableWalker TOTAL LATENCY: 682892 cycles

DRAM Statistics
Channel 0
 RQ ROW_BUFFER_HIT:     538442
  ROW_BUFFER_MISS:    1389291
 AVG DBUS CONGESTED CYCLE:    3.64342
 WQ ROW_BUFFER_HIT:      38545
  ROW_BUFFER_MISS:      27185  FULL:          0

