last_page:0x200000000000000
VMEM_RES_CAP:0x100000
PAGE_SIZE:4096
LOG2_PAGE_SIZE:12
LOG2_PAGE_TABLE_SIZE:9
page_table_levels:5
WARNING: physical memory size is smaller than virtual memory size
FDiP enabled with aggresivity 16

*** ChampSim Multicore Out-of-Order Simulator ***

Warmup Instructions: 50000000
Simulation Instructions: 100000000
Number of CPUs: 1
Small page size: 4096
Large page size: 2097152

CPU 0 Bimodal branch predictor
Basic BTB sets: 1024 ways: 8 indirect buffer size: 4096 RAS size: 64
Instruction page size distrubution: 0
Loading instruction page size distribution from /home/bsc/bsc018186/scratch/itp_asplos25_AE/dump/srv727_ap.pdst
Data page size distrubution: 0
Loading data page size distribution from /home/bsc/bsc018186/scratch/itp_asplos25_AE/dump/srv727_ap.pdst
cpu0_L2C IP-based stride prefetcher
cpu0_L1D next line prefetcher
CHiRPing...
cpu0_L1I next line prefetcher
Off-chip DRAM Size: 4 GiB Channels: 1 Width: 64-bit Data Rate: 3200 MT/s
Heartbeat CPU 0 instructions: 10000001 cycles: 2500154 heartbeat IPC: 3.99976 cumulative IPC: 3.99976 (Simulation time: 0 hr 0 min 38 sec) 
Heartbeat CPU 0 instructions: 20000002 cycles: 5000266 heartbeat IPC: 3.99983 cumulative IPC: 3.99979 (Simulation time: 0 hr 1 min 18 sec) 
Heartbeat CPU 0 instructions: 30000000 cycles: 7500276 heartbeat IPC: 3.99999 cumulative IPC: 3.99986 (Simulation time: 0 hr 1 min 58 sec) 
Heartbeat CPU 0 instructions: 40000001 cycles: 10000937 heartbeat IPC: 3.99895 cumulative IPC: 3.99963 (Simulation time: 0 hr 2 min 39 sec) 
Heartbeat CPU 0 instructions: 50000001 cycles: 12501023 heartbeat IPC: 3.99987 cumulative IPC: 3.99968 (Simulation time: 0 hr 3 min 20 sec) 
Warmup finished CPU 0 instructions: 50000001 cycles: 12501024 cumulative IPC: 3.99968 (Simulation time: 0 hr 3 min 20 sec) 

Warmup complete CPU 0 instructions: 50000001 cycles: 12501024 (Simulation time: 0 hr 3 min 20 sec) 

Heartbeat CPU 0 instructions: 60000002 cycles: 33831798 heartbeat IPC: 0.468807 cumulative IPC: 0.468807 (Simulation time: 0 hr 4 min 34 sec) 
Heartbeat CPU 0 instructions: 70000000 cycles: 54776370 heartbeat IPC: 0.477451 cumulative IPC: 0.473089 (Simulation time: 0 hr 5 min 49 sec) 
Heartbeat CPU 0 instructions: 80000003 cycles: 76204188 heartbeat IPC: 0.466684 cumulative IPC: 0.470935 (Simulation time: 0 hr 7 min 5 sec) 
Heartbeat CPU 0 instructions: 90000000 cycles: 96472183 heartbeat IPC: 0.493389 cumulative IPC: 0.476355 (Simulation time: 0 hr 8 min 20 sec) 
Heartbeat CPU 0 instructions: 100000001 cycles: 118158866 heartbeat IPC: 0.461113 cumulative IPC: 0.473226 (Simulation time: 0 hr 9 min 37 sec) 
*** Reached end of trace: /gpfs/projects/bsc18/MN4/bsc18/romol/ChampSim/traces/qualcomm_srv/srv727_ap.champsimtrace.xz
Heartbeat CPU 0 instructions: 110000001 cycles: 138318554 heartbeat IPC: 0.49604 cumulative IPC: 0.476882 (Simulation time: 0 hr 10 min 52 sec) 
Heartbeat CPU 0 instructions: 120000001 cycles: 158490350 heartbeat IPC: 0.495742 cumulative IPC: 0.479488 (Simulation time: 0 hr 12 min 7 sec) 
Heartbeat CPU 0 instructions: 130000001 cycles: 179682866 heartbeat IPC: 0.471865 cumulative IPC: 0.478521 (Simulation time: 0 hr 13 min 24 sec) 
Heartbeat CPU 0 instructions: 140000004 cycles: 200254085 heartbeat IPC: 0.486117 cumulative IPC: 0.479354 (Simulation time: 0 hr 14 min 39 sec) 
Heartbeat CPU 0 instructions: 150000003 cycles: 221043592 heartbeat IPC: 0.481012 cumulative IPC: 0.479519 (Simulation time: 0 hr 15 min 55 sec) 
Simulation finished CPU 0 instructions: 100000002 cycles: 208542569 cumulative IPC: 0.479519 (Simulation time: 0 hr 15 min 55 sec) 

Simulation complete CPU 0 instructions: 100000002 cycles: 208542569 (Simulation time: 0 hr 15 min 55 sec) 


ChampSim completed all CPUs

Saving instructions large page distribution to /home/bsc/bsc018186/scratch/itp_asplos25_AE/dump/srv727_ap.pdst...
Saving data large page distribution to /home/bsc/bsc018186/scratch/itp_asplos25_AE/dump/srv727_ap.pdst...
=== Simulation ===
CPU 0 runs /gpfs/projects/bsc18/MN4/bsc18/romol/ChampSim/traces/qualcomm_srv/srv727_ap.champsimtrace.xz

Region of Interest Statistics

CPU 0 cumulative IPC: 0.479519 instructions: 100000002 cycles: 208542569
CPU 0 Branch Prediction Accuracy: 80.2071% MPKI: 35.6611 Average ROB Occupancy at Mispredict: 10.687
Branch type MPKI
BRANCH_DIRECT_JUMP: 1.31546
BRANCH_INDIRECT: 17.8474
BRANCH_CONDITIONAL: 11.594
BRANCH_DIRECT_CALL: 2.46883
BRANCH_INDIRECT_CALL: 0.6923
BRANCH_RETURN: 1.74308

Instructions large pages: 0
Instructions small pages: 5810
Large page distribution for instructions: 0%

Data large pages: 0
Data small pages: 4708
Large page distribution for data: 0%

cpu0_L1I TOTAL       ACCESS:   35326994  HIT:   27441055  MISS:    7885939  iACCESS:   35326994  iHIT:   27441055  iMISS:    7885939  dACCESS:          0  dHIT:          0  dMISS:          0  itACCESS:          0  itHIT:          0  itMISS:          0  dtACCESS:          0  dtHIT:          0  dtMISS:          0
cpu0_L1I LOAD         ACCESS:   10182918  HIT:    8015026  MISS:    2167892  iACCESS:   10182918  iHIT:    8015026  iMISS:    2167892  dACCESS:          0  dHIT:          0  dMISS:          0  itACCESS:          0  itHIT:          0  itMISS:          0  dtACCESS:          0  dtHIT:          0  dtMISS:          0
cpu0_L1I RFO          ACCESS:          0  HIT:          0  MISS:          0  iACCESS:          0  iHIT:          0  iMISS:          0  dACCESS:          0  dHIT:          0  dMISS:          0  itACCESS:          0  itHIT:          0  itMISS:          0  dtACCESS:          0  dtHIT:          0  dtMISS:          0
cpu0_L1I PREFETCH     ACCESS:   25144076  HIT:   19426029  MISS:    5718047  iACCESS:   25144076  iHIT:   19426029  iMISS:    5718047  dACCESS:          0  dHIT:          0  dMISS:          0  itACCESS:          0  itHIT:          0  itMISS:          0  dtACCESS:          0  dtHIT:          0  dtMISS:          0
cpu0_L1I WRITE        ACCESS:          0  HIT:          0  MISS:          0  iACCESS:          0  iHIT:          0  iMISS:          0  dACCESS:          0  dHIT:          0  dMISS:          0  itACCESS:          0  itHIT:          0  itMISS:          0  dtACCESS:          0  dtHIT:          0  dtMISS:          0
cpu0_L1I TRANSLATION  ACCESS:          0  HIT:          0  MISS:          0  iACCESS:          0  iHIT:          0  iMISS:          0  dACCESS:          0  dHIT:          0  dMISS:          0  itACCESS:          0  itHIT:          0  itMISS:          0  dtACCESS:          0  dtHIT:          0  dtMISS:          0
cpu0_L1I PREFETCH  REQUESTED:   27517069  ISSUED:   27517069  CROSSED:          0  USEFUL:    1974124  USELESS:     655372
cpu0_L1I AVERAGE iMISS LATENCY: 19.9007 cycles
cpu0_L1I AVERAGE dMISS LATENCY: 0 cycles
cpu0_L1I AVERAGE itMISS LATENCY: 0 cycles
cpu0_L1I AVERAGE dtMISS LATENCY: 0 cycles
cpu0_L1I PAGE CROSSINGS (TLB HIT):         0 
cpu0_L1I PAGE CROSSINGS (TLB MISS):         0 
cpu0_L1I AVERAGE MISS LATENCY: 19.9007 cycles
cpu0_ITLB TOTAL       ACCESS:   29823981  HIT:   27860798  MISS:    1963183  iACCESS:   29823981  iHIT:   27860798  iMISS:    1963183  dACCESS:          0  dHIT:          0  dMISS:          0  itACCESS:          0  itHIT:          0  itMISS:          0  dtACCESS:          0  dtHIT:          0  dtMISS:          0
cpu0_ITLB LOAD         ACCESS:   29823981  HIT:   27860798  MISS:    1963183  iACCESS:   29823981  iHIT:   27860798  iMISS:    1963183  dACCESS:          0  dHIT:          0  dMISS:          0  itACCESS:          0  itHIT:          0  itMISS:          0  dtACCESS:          0  dtHIT:          0  dtMISS:          0
cpu0_ITLB RFO          ACCESS:          0  HIT:          0  MISS:          0  iACCESS:          0  iHIT:          0  iMISS:          0  dACCESS:          0  dHIT:          0  dMISS:          0  itACCESS:          0  itHIT:          0  itMISS:          0  dtACCESS:          0  dtHIT:          0  dtMISS:          0
cpu0_ITLB PREFETCH     ACCESS:          0  HIT:          0  MISS:          0  iACCESS:          0  iHIT:          0  iMISS:          0  dACCESS:          0  dHIT:          0  dMISS:          0  itACCESS:          0  itHIT:          0  itMISS:          0  dtACCESS:          0  dtHIT:          0  dtMISS:          0
cpu0_ITLB WRITE        ACCESS:          0  HIT:          0  MISS:          0  iACCESS:          0  iHIT:          0  iMISS:          0  dACCESS:          0  dHIT:          0  dMISS:          0  itACCESS:          0  itHIT:          0  itMISS:          0  dtACCESS:          0  dtHIT:          0  dtMISS:          0
cpu0_ITLB TRANSLATION  ACCESS:          0  HIT:          0  MISS:          0  iACCESS:          0  iHIT:          0  iMISS:          0  dACCESS:          0  dHIT:          0  dMISS:          0  itACCESS:          0  itHIT:          0  itMISS:          0  dtACCESS:          0  dtHIT:          0  dtMISS:          0
cpu0_ITLB PREFETCH  REQUESTED:          0  ISSUED:          0  CROSSED:          0  USEFUL:     331098  USELESS:      62414
cpu0_ITLB AVERAGE iMISS LATENCY: 7.76483 cycles
cpu0_ITLB AVERAGE dMISS LATENCY: 0 cycles
cpu0_ITLB AVERAGE itMISS LATENCY: 0 cycles
cpu0_ITLB AVERAGE dtMISS LATENCY: 0 cycles
cpu0_ITLB PAGE CROSSINGS (TLB HIT):         0 
cpu0_ITLB PAGE CROSSINGS (TLB MISS):         0 
cpu0_ITLB AVERAGE MISS LATENCY: 7.76483 cycles
cpu0_DTLB TOTAL       ACCESS:   27988549  HIT:   26180035  MISS:    1808514  iACCESS:          0  iHIT:          0  iMISS:          0  dACCESS:   27988549  dHIT:   26180035  dMISS:    1808514  itACCESS:          0  itHIT:          0  itMISS:          0  dtACCESS:          0  dtHIT:          0  dtMISS:          0
cpu0_DTLB LOAD         ACCESS:   27988549  HIT:   26180035  MISS:    1808514  iACCESS:          0  iHIT:          0  iMISS:          0  dACCESS:   27988549  dHIT:   26180035  dMISS:    1808514  itACCESS:          0  itHIT:          0  itMISS:          0  dtACCESS:          0  dtHIT:          0  dtMISS:          0
cpu0_DTLB RFO          ACCESS:          0  HIT:          0  MISS:          0  iACCESS:          0  iHIT:          0  iMISS:          0  dACCESS:          0  dHIT:          0  dMISS:          0  itACCESS:          0  itHIT:          0  itMISS:          0  dtACCESS:          0  dtHIT:          0  dtMISS:          0
cpu0_DTLB PREFETCH     ACCESS:          0  HIT:          0  MISS:          0  iACCESS:          0  iHIT:          0  iMISS:          0  dACCESS:          0  dHIT:          0  dMISS:          0  itACCESS:          0  itHIT:          0  itMISS:          0  dtACCESS:          0  dtHIT:          0  dtMISS:          0
cpu0_DTLB WRITE        ACCESS:          0  HIT:          0  MISS:          0  iACCESS:          0  iHIT:          0  iMISS:          0  dACCESS:          0  dHIT:          0  dMISS:          0  itACCESS:          0  itHIT:          0  itMISS:          0  dtACCESS:          0  dtHIT:          0  dtMISS:          0
cpu0_DTLB TRANSLATION  ACCESS:          0  HIT:          0  MISS:          0  iACCESS:          0  iHIT:          0  iMISS:          0  dACCESS:          0  dHIT:          0  dMISS:          0  itACCESS:          0  itHIT:          0  itMISS:          0  dtACCESS:          0  dtHIT:          0  dtMISS:          0
cpu0_DTLB PREFETCH  REQUESTED:          0  ISSUED:          0  CROSSED:          0  USEFUL:          0  USELESS:          0
cpu0_DTLB AVERAGE iMISS LATENCY: 0 cycles
cpu0_DTLB AVERAGE dMISS LATENCY: 22.2483 cycles
cpu0_DTLB AVERAGE itMISS LATENCY: 0 cycles
cpu0_DTLB AVERAGE dtMISS LATENCY: 0 cycles
cpu0_DTLB PAGE CROSSINGS (TLB HIT):         0 
cpu0_DTLB PAGE CROSSINGS (TLB MISS):         0 
cpu0_DTLB AVERAGE MISS LATENCY: 22.2483 cycles
cpu0_STLB TOTAL       ACCESS:    1540952  HIT:    1305067  MISS:     235885  iACCESS:     393513  iHIT:     304638  iMISS:      88875  dACCESS:    1147439  dHIT:    1000429  dMISS:     147010  itACCESS:          0  itHIT:          0  itMISS:          0  dtACCESS:          0  dtHIT:          0  dtMISS:          0
cpu0_STLB LOAD         ACCESS:    1540952  HIT:    1305067  MISS:     235885  iACCESS:     393513  iHIT:     304638  iMISS:      88875  dACCESS:    1147439  dHIT:    1000429  dMISS:     147010  itACCESS:          0  itHIT:          0  itMISS:          0  dtACCESS:          0  dtHIT:          0  dtMISS:          0
cpu0_STLB RFO          ACCESS:          0  HIT:          0  MISS:          0  iACCESS:          0  iHIT:          0  iMISS:          0  dACCESS:          0  dHIT:          0  dMISS:          0  itACCESS:          0  itHIT:          0  itMISS:          0  dtACCESS:          0  dtHIT:          0  dtMISS:          0
cpu0_STLB PREFETCH     ACCESS:          0  HIT:          0  MISS:          0  iACCESS:          0  iHIT:          0  iMISS:          0  dACCESS:          0  dHIT:          0  dMISS:          0  itACCESS:          0  itHIT:          0  itMISS:          0  dtACCESS:          0  dtHIT:          0  dtMISS:          0
cpu0_STLB WRITE        ACCESS:          0  HIT:          0  MISS:          0  iACCESS:          0  iHIT:          0  iMISS:          0  dACCESS:          0  dHIT:          0  dMISS:          0  itACCESS:          0  itHIT:          0  itMISS:          0  dtACCESS:          0  dtHIT:          0  dtMISS:          0
cpu0_STLB TRANSLATION  ACCESS:          0  HIT:          0  MISS:          0  iACCESS:          0  iHIT:          0  iMISS:          0  dACCESS:          0  dHIT:          0  dMISS:          0  itACCESS:          0  itHIT:          0  itMISS:          0  dtACCESS:          0  dtHIT:          0  dtMISS:          0
cpu0_STLB PREFETCH  REQUESTED:          0  ISSUED:          0  CROSSED:          0  USEFUL:          0  USELESS:          0
cpu0_STLB AVERAGE iMISS LATENCY: 51.2957 cycles
cpu0_STLB AVERAGE dMISS LATENCY: 131.618 cycles
cpu0_STLB AVERAGE itMISS LATENCY: 0 cycles
cpu0_STLB AVERAGE dtMISS LATENCY: 0 cycles
cpu0_STLB PAGE CROSSINGS (TLB HIT):         0 
cpu0_STLB PAGE CROSSINGS (TLB MISS):         0 
cpu0_STLB AVERAGE MISS LATENCY: 182.913 cycles
cpu0_L1D TOTAL       ACCESS:   42615359  HIT:   38450301  MISS:    4165058  iACCESS:          0  iHIT:          0  iMISS:          0  dACCESS:   42320834  dHIT:   38422910  dMISS:    3897924  itACCESS:      95337  itHIT:      15242  itMISS:      80095  dtACCESS:     199188  dtHIT:      12149  dtMISS:     187039
cpu0_L1D LOAD         ACCESS:   19414450  HIT:   17645628  MISS:    1768822  iACCESS:          0  iHIT:          0  iMISS:          0  dACCESS:   19414450  dHIT:   17645628  dMISS:    1768822  itACCESS:          0  itHIT:          0  itMISS:          0  dtACCESS:          0  dtHIT:          0  dtMISS:          0
cpu0_L1D RFO          ACCESS:          0  HIT:          0  MISS:          0  iACCESS:          0  iHIT:          0  iMISS:          0  dACCESS:          0  dHIT:          0  dMISS:          0  itACCESS:          0  itHIT:          0  itMISS:          0  dtACCESS:          0  dtHIT:          0  dtMISS:          0
cpu0_L1D PREFETCH     ACCESS:   12731101  HIT:   11099964  MISS:    1631137  iACCESS:          0  iHIT:          0  iMISS:          0  dACCESS:   12731101  dHIT:   11099964  dMISS:    1631137  itACCESS:          0  itHIT:          0  itMISS:          0  dtACCESS:          0  dtHIT:          0  dtMISS:          0
cpu0_L1D WRITE        ACCESS:   10175283  HIT:    9677318  MISS:     497965  iACCESS:          0  iHIT:          0  iMISS:          0  dACCESS:   10175283  dHIT:    9677318  dMISS:     497965  itACCESS:          0  itHIT:          0  itMISS:          0  dtACCESS:          0  dtHIT:          0  dtMISS:          0
cpu0_L1D TRANSLATION  ACCESS:     294525  HIT:      27391  MISS:     267134  iACCESS:          0  iHIT:          0  iMISS:          0  dACCESS:          0  dHIT:          0  dMISS:          0  itACCESS:      95337  itHIT:      15242  itMISS:      80095  dtACCESS:     199188  dtHIT:      12149  dtMISS:     187039
cpu0_L1D PREFETCH  REQUESTED:   19414450  ISSUED:   17250947  CROSSED:          0  USEFUL:     311602  USELESS:     710681
cpu0_L1D AVERAGE iMISS LATENCY: 0 cycles
cpu0_L1D AVERAGE dMISS LATENCY: 40.7687 cycles
cpu0_L1D AVERAGE itMISS LATENCY: 2.72145 cycles
cpu0_L1D AVERAGE dtMISS LATENCY: 6.96702 cycles
cpu0_L1D PAGE CROSSINGS (TLB HIT):         0 
cpu0_L1D PAGE CROSSINGS (TLB MISS):         0 
cpu0_L1D AVERAGE MISS LATENCY: 50.4572 cycles
cpu0_L2C TOTAL       ACCESS:    7297276  HIT:    3721190  MISS:    3576086  iACCESS:    3364055  iHIT:    2026266  iMISS:    1337789  dACCESS:    3669485  dHIT:    1658141  dMISS:    2011344  itACCESS:      80095  itHIT:      13782  itMISS:      66313  dtACCESS:     183641  dtHIT:      23001  dtMISS:     160640
cpu0_L2C LOAD         ACCESS:    1731809  HIT:     920060  MISS:     811749  iACCESS:     772091  iHIT:     492872  iMISS:     279219  dACCESS:     959718  dHIT:     427188  dMISS:     532530  itACCESS:          0  itHIT:          0  itMISS:          0  dtACCESS:          0  dtHIT:          0  dtMISS:          0
cpu0_L2C RFO          ACCESS:     167276  HIT:      63182  MISS:     104094  iACCESS:          0  iHIT:          0  iMISS:          0  dACCESS:     167276  dHIT:      63182  dMISS:     104094  itACCESS:          0  itHIT:          0  itMISS:          0  dtACCESS:          0  dtHIT:          0  dtMISS:          0
cpu0_L2C PREFETCH     ACCESS:    4855188  HIT:    2423246  MISS:    2431942  iACCESS:    2591964  iHIT:    1533394  iMISS:    1058570  dACCESS:    2263224  dHIT:     889852  dMISS:    1373372  itACCESS:          0  itHIT:          0  itMISS:          0  dtACCESS:          0  dtHIT:          0  dtMISS:          0
cpu0_L2C WRITE        ACCESS:     279267  HIT:     277919  MISS:       1348  iACCESS:          0  iHIT:          0  iMISS:          0  dACCESS:     279267  dHIT:     277919  dMISS:       1348  itACCESS:          0  itHIT:          0  itMISS:          0  dtACCESS:          0  dtHIT:          0  dtMISS:          0
cpu0_L2C TRANSLATION  ACCESS:     263736  HIT:      36783  MISS:     226953  iACCESS:          0  iHIT:          0  iMISS:          0  dACCESS:          0  dHIT:          0  dMISS:          0  itACCESS:      80095  itHIT:      13782  itMISS:      66313  dtACCESS:     183641  dtHIT:      23001  dtMISS:     160640
cpu0_L2C PREFETCH  REQUESTED:    1501899  ISSUED:    1501542  CROSSED:          0  USEFUL:     355915  USELESS:     299240
cpu0_L2C AVERAGE iMISS LATENCY: 35.7232 cycles
cpu0_L2C AVERAGE dMISS LATENCY: 61.2168 cycles
cpu0_L2C AVERAGE itMISS LATENCY: 2.94877 cycles
cpu0_L2C AVERAGE dtMISS LATENCY: 7.60435 cycles
cpu0_L2C PAGE CROSSINGS (TLB HIT):         0 
cpu0_L2C PAGE CROSSINGS (TLB MISS):         0 
cpu0_L2C AVERAGE MISS LATENCY: 107.494 cycles
LLC TOTAL       ACCESS:    3537421  HIT:    1543427  MISS:    1993994  iACCESS:    1257990  iHIT:     560489  iMISS:     697501  dACCESS:    2052478  dHIT:     936318  dMISS:    1116160  itACCESS:      66313  itHIT:      13056  itMISS:      53257  dtACCESS:     160640  dtHIT:      33564  dtMISS:     127076
LLC LOAD         ACCESS:     806232  HIT:     375803  MISS:     430429  iACCESS:     277865  iHIT:     129331  iMISS:     148534  dACCESS:     528367  dHIT:     246472  dMISS:     281895  itACCESS:          0  itHIT:          0  itMISS:          0  dtACCESS:          0  dtHIT:          0  dtMISS:          0
LLC RFO          ACCESS:     104089  HIT:      40855  MISS:      63234  iACCESS:          0  iHIT:          0  iMISS:          0  dACCESS:     104089  dHIT:      40855  dMISS:      63234  itACCESS:          0  itHIT:          0  itMISS:          0  dtACCESS:          0  dtHIT:          0  dtMISS:          0
LLC PREFETCH     ACCESS:    2251145  HIT:     939351  MISS:    1311794  iACCESS:     980125  iHIT:     431158  iMISS:     548967  dACCESS:    1271020  dHIT:     508193  dMISS:     762827  itACCESS:          0  itHIT:          0  itMISS:          0  dtACCESS:          0  dtHIT:          0  dtMISS:          0
LLC WRITE        ACCESS:     149002  HIT:     140798  MISS:       8204  iACCESS:          0  iHIT:          0  iMISS:          0  dACCESS:     149002  dHIT:     140798  dMISS:       8204  itACCESS:          0  itHIT:          0  itMISS:          0  dtACCESS:          0  dtHIT:          0  dtMISS:          0
LLC TRANSLATION  ACCESS:     226953  HIT:      46620  MISS:     180333  iACCESS:          0  iHIT:          0  iMISS:          0  dACCESS:          0  dHIT:          0  dMISS:          0  itACCESS:      66313  itHIT:      13056  itMISS:      53257  dtACCESS:     160640  dtHIT:      33564  dtMISS:     127076
LLC PREFETCH  REQUESTED:          0  ISSUED:          0  CROSSED:          0  USEFUL:          0  USELESS:          0
LLC AVERAGE iMISS LATENCY: 51.7101 cycles
LLC AVERAGE dMISS LATENCY: 92.0874 cycles
LLC AVERAGE itMISS LATENCY: 4.63218 cycles
LLC AVERAGE dtMISS LATENCY: 12.0517 cycles
LLC PAGE CROSSINGS (TLB HIT):         0 
LLC PAGE CROSSINGS (TLB MISS):         0 
LLC AVERAGE MISS LATENCY: 160.482 cycles

PageTableWalker TOTAL       ACCESS:     116327  
PageTableWalker AVERAGE LATENCY: 5.08421 cycles
PageTableWalker TOTAL LATENCY: 591430 cycles

DRAM Statistics
Channel 0
 RQ ROW_BUFFER_HIT:     538213
  ROW_BUFFER_MISS:    1433224
 AVG DBUS CONGESTED CYCLE:    3.63451
 WQ ROW_BUFFER_HIT:      39497
  ROW_BUFFER_MISS:      26401  FULL:          0

