last_page:0x200000000000000
VMEM_RES_CAP:0x100000
PAGE_SIZE:4096
LOG2_PAGE_SIZE:12
LOG2_PAGE_TABLE_SIZE:9
page_table_levels:5
WARNING: physical memory size is smaller than virtual memory size
FDiP enabled with aggresivity 16

*** ChampSim Multicore Out-of-Order Simulator ***

Warmup Instructions: 50000000
Simulation Instructions: 100000000
Number of CPUs: 1
Small page size: 4096
Large page size: 2097152

CPU 0 Bimodal branch predictor
Basic BTB sets: 1024 ways: 8 indirect buffer size: 4096 RAS size: 64
Instruction page size distrubution: 0
Loading instruction page size distribution from /home/bsc/bsc018186/scratch/itp_asplos25_AE/dump/srv73_ap.pdst
Data page size distrubution: 0
Loading data page size distribution from /home/bsc/bsc018186/scratch/itp_asplos25_AE/dump/srv73_ap.pdst
cpu0_L2C IP-based stride prefetcher
cpu0_L1D next line prefetcher
CHiRPing...
cpu0_L1I next line prefetcher
Off-chip DRAM Size: 4 GiB Channels: 1 Width: 64-bit Data Rate: 3200 MT/s
Heartbeat CPU 0 instructions: 10000002 cycles: 2500218 heartbeat IPC: 3.99966 cumulative IPC: 3.99966 (Simulation time: 0 hr 0 min 39 sec) 
Heartbeat CPU 0 instructions: 20000002 cycles: 5000304 heartbeat IPC: 3.99987 cumulative IPC: 3.99976 (Simulation time: 0 hr 1 min 21 sec) 
Heartbeat CPU 0 instructions: 30000001 cycles: 7507911 heartbeat IPC: 3.98787 cumulative IPC: 3.99579 (Simulation time: 0 hr 2 min 2 sec) 
Heartbeat CPU 0 instructions: 40000003 cycles: 10015165 heartbeat IPC: 3.98843 cumulative IPC: 3.99395 (Simulation time: 0 hr 2 min 40 sec) 
Heartbeat CPU 0 instructions: 50000003 cycles: 12517778 heartbeat IPC: 3.99583 cumulative IPC: 3.99432 (Simulation time: 0 hr 3 min 21 sec) 
Warmup finished CPU 0 instructions: 50000003 cycles: 12517779 cumulative IPC: 3.99432 (Simulation time: 0 hr 3 min 21 sec) 

Warmup complete CPU 0 instructions: 50000003 cycles: 12517779 (Simulation time: 0 hr 3 min 21 sec) 

Heartbeat CPU 0 instructions: 60000000 cycles: 32300236 heartbeat IPC: 0.505499 cumulative IPC: 0.505499 (Simulation time: 0 hr 4 min 33 sec) 
Heartbeat CPU 0 instructions: 70000002 cycles: 40982632 heartbeat IPC: 1.15176 cumulative IPC: 0.702621 (Simulation time: 0 hr 5 min 34 sec) 
Heartbeat CPU 0 instructions: 80000004 cycles: 61544961 heartbeat IPC: 0.486327 cumulative IPC: 0.611906 (Simulation time: 0 hr 6 min 47 sec) 
Heartbeat CPU 0 instructions: 90000002 cycles: 81639524 heartbeat IPC: 0.497647 cumulative IPC: 0.57869 (Simulation time: 0 hr 7 min 59 sec) 
Heartbeat CPU 0 instructions: 100000000 cycles: 102051108 heartbeat IPC: 0.489918 cumulative IPC: 0.558452 (Simulation time: 0 hr 9 min 12 sec) 
*** Reached end of trace: /gpfs/projects/bsc18/MN4/bsc18/romol/ChampSim/traces/qualcomm_srv/srv73_ap.champsimtrace.xz
Heartbeat CPU 0 instructions: 110000001 cycles: 122116305 heartbeat IPC: 0.498376 cumulative IPC: 0.547453 (Simulation time: 0 hr 10 min 24 sec) 
Heartbeat CPU 0 instructions: 120000002 cycles: 142213021 heartbeat IPC: 0.497594 cumulative IPC: 0.539727 (Simulation time: 0 hr 11 min 37 sec) 
Heartbeat CPU 0 instructions: 130000000 cycles: 157768501 heartbeat IPC: 0.642861 cumulative IPC: 0.550772 (Simulation time: 0 hr 12 min 42 sec) 
Heartbeat CPU 0 instructions: 140000000 cycles: 167740459 heartbeat IPC: 1.00282 cumulative IPC: 0.579813 (Simulation time: 0 hr 13 min 37 sec) 
Heartbeat CPU 0 instructions: 150000004 cycles: 186761758 heartbeat IPC: 0.525727 cumulative IPC: 0.573908 (Simulation time: 0 hr 14 min 46 sec) 
Simulation finished CPU 0 instructions: 100000001 cycles: 174243980 cumulative IPC: 0.573908 (Simulation time: 0 hr 14 min 46 sec) 

Simulation complete CPU 0 instructions: 100000001 cycles: 174243980 (Simulation time: 0 hr 14 min 46 sec) 


ChampSim completed all CPUs

Saving instructions large page distribution to /home/bsc/bsc018186/scratch/itp_asplos25_AE/dump/srv73_ap.pdst...
Saving data large page distribution to /home/bsc/bsc018186/scratch/itp_asplos25_AE/dump/srv73_ap.pdst...
=== Simulation ===
CPU 0 runs /gpfs/projects/bsc18/MN4/bsc18/romol/ChampSim/traces/qualcomm_srv/srv73_ap.champsimtrace.xz

Region of Interest Statistics

CPU 0 cumulative IPC: 0.573908 instructions: 100000001 cycles: 174243980
CPU 0 Branch Prediction Accuracy: 82.7501% MPKI: 33.8556 Average ROB Occupancy at Mispredict: 11.5447
Branch type MPKI
BRANCH_DIRECT_JUMP: 1.01076
BRANCH_INDIRECT: 16.971
BRANCH_CONDITIONAL: 11.2404
BRANCH_DIRECT_CALL: 1.82837
BRANCH_INDIRECT_CALL: 1.46524
BRANCH_RETURN: 1.33985

Instructions large pages: 0
Instructions small pages: 1671
Large page distribution for instructions: 0%

Data large pages: 0
Data small pages: 5667
Large page distribution for data: 0%

cpu0_L1I TOTAL       ACCESS:   32739957  HIT:   25946990  MISS:    6792967  iACCESS:   32739957  iHIT:   25946990  iMISS:    6792967  dACCESS:          0  dHIT:          0  dMISS:          0  itACCESS:          0  itHIT:          0  itMISS:          0  dtACCESS:          0  dtHIT:          0  dtMISS:          0
cpu0_L1I LOAD         ACCESS:    8039344  HIT:    6148067  MISS:    1891277  iACCESS:    8039344  iHIT:    6148067  iMISS:    1891277  dACCESS:          0  dHIT:          0  dMISS:          0  itACCESS:          0  itHIT:          0  itMISS:          0  dtACCESS:          0  dtHIT:          0  dtMISS:          0
cpu0_L1I RFO          ACCESS:          0  HIT:          0  MISS:          0  iACCESS:          0  iHIT:          0  iMISS:          0  dACCESS:          0  dHIT:          0  dMISS:          0  itACCESS:          0  itHIT:          0  itMISS:          0  dtACCESS:          0  dtHIT:          0  dtMISS:          0
cpu0_L1I PREFETCH     ACCESS:   24700613  HIT:   19798923  MISS:    4901690  iACCESS:   24700613  iHIT:   19798923  iMISS:    4901690  dACCESS:          0  dHIT:          0  dMISS:          0  itACCESS:          0  itHIT:          0  itMISS:          0  dtACCESS:          0  dtHIT:          0  dtMISS:          0
cpu0_L1I WRITE        ACCESS:          0  HIT:          0  MISS:          0  iACCESS:          0  iHIT:          0  iMISS:          0  dACCESS:          0  dHIT:          0  dMISS:          0  itACCESS:          0  itHIT:          0  itMISS:          0  dtACCESS:          0  dtHIT:          0  dtMISS:          0
cpu0_L1I TRANSLATION  ACCESS:          0  HIT:          0  MISS:          0  iACCESS:          0  iHIT:          0  iMISS:          0  dACCESS:          0  dHIT:          0  dMISS:          0  itACCESS:          0  itHIT:          0  itMISS:          0  dtACCESS:          0  dtHIT:          0  dtMISS:          0
cpu0_L1I PREFETCH  REQUESTED:   26257287  ISSUED:   26256130  CROSSED:          0  USEFUL:    1557731  USELESS:     567605
cpu0_L1I AVERAGE iMISS LATENCY: 19.9943 cycles
cpu0_L1I AVERAGE dMISS LATENCY: 0 cycles
cpu0_L1I AVERAGE itMISS LATENCY: 0 cycles
cpu0_L1I AVERAGE dtMISS LATENCY: 0 cycles
cpu0_L1I PAGE CROSSINGS (TLB HIT):         0 
cpu0_L1I PAGE CROSSINGS (TLB MISS):         0 
cpu0_L1I AVERAGE MISS LATENCY: 19.9943 cycles
cpu0_ITLB TOTAL       ACCESS:   27794278  HIT:   26222385  MISS:    1571893  iACCESS:   27794278  iHIT:   26222385  iMISS:    1571893  dACCESS:          0  dHIT:          0  dMISS:          0  itACCESS:          0  itHIT:          0  itMISS:          0  dtACCESS:          0  dtHIT:          0  dtMISS:          0
cpu0_ITLB LOAD         ACCESS:   27794278  HIT:   26222385  MISS:    1571893  iACCESS:   27794278  iHIT:   26222385  iMISS:    1571893  dACCESS:          0  dHIT:          0  dMISS:          0  itACCESS:          0  itHIT:          0  itMISS:          0  dtACCESS:          0  dtHIT:          0  dtMISS:          0
cpu0_ITLB RFO          ACCESS:          0  HIT:          0  MISS:          0  iACCESS:          0  iHIT:          0  iMISS:          0  dACCESS:          0  dHIT:          0  dMISS:          0  itACCESS:          0  itHIT:          0  itMISS:          0  dtACCESS:          0  dtHIT:          0  dtMISS:          0
cpu0_ITLB PREFETCH     ACCESS:          0  HIT:          0  MISS:          0  iACCESS:          0  iHIT:          0  iMISS:          0  dACCESS:          0  dHIT:          0  dMISS:          0  itACCESS:          0  itHIT:          0  itMISS:          0  dtACCESS:          0  dtHIT:          0  dtMISS:          0
cpu0_ITLB WRITE        ACCESS:          0  HIT:          0  MISS:          0  iACCESS:          0  iHIT:          0  iMISS:          0  dACCESS:          0  dHIT:          0  dMISS:          0  itACCESS:          0  itHIT:          0  itMISS:          0  dtACCESS:          0  dtHIT:          0  dtMISS:          0
cpu0_ITLB TRANSLATION  ACCESS:          0  HIT:          0  MISS:          0  iACCESS:          0  iHIT:          0  iMISS:          0  dACCESS:          0  dHIT:          0  dMISS:          0  itACCESS:          0  itHIT:          0  itMISS:          0  dtACCESS:          0  dtHIT:          0  dtMISS:          0
cpu0_ITLB PREFETCH  REQUESTED:          0  ISSUED:          0  CROSSED:          0  USEFUL:     268725  USELESS:      52622
cpu0_ITLB AVERAGE iMISS LATENCY: 4.94144 cycles
cpu0_ITLB AVERAGE dMISS LATENCY: 0 cycles
cpu0_ITLB AVERAGE itMISS LATENCY: 0 cycles
cpu0_ITLB AVERAGE dtMISS LATENCY: 0 cycles
cpu0_ITLB PAGE CROSSINGS (TLB HIT):         0 
cpu0_ITLB PAGE CROSSINGS (TLB MISS):         0 
cpu0_ITLB AVERAGE MISS LATENCY: 4.94144 cycles
cpu0_DTLB TOTAL       ACCESS:   30944529  HIT:   27258718  MISS:    3685811  iACCESS:          0  iHIT:          0  iMISS:          0  dACCESS:   30944529  dHIT:   27258718  dMISS:    3685811  itACCESS:          0  itHIT:          0  itMISS:          0  dtACCESS:          0  dtHIT:          0  dtMISS:          0
cpu0_DTLB LOAD         ACCESS:   30944529  HIT:   27258718  MISS:    3685811  iACCESS:          0  iHIT:          0  iMISS:          0  dACCESS:   30944529  dHIT:   27258718  dMISS:    3685811  itACCESS:          0  itHIT:          0  itMISS:          0  dtACCESS:          0  dtHIT:          0  dtMISS:          0
cpu0_DTLB RFO          ACCESS:          0  HIT:          0  MISS:          0  iACCESS:          0  iHIT:          0  iMISS:          0  dACCESS:          0  dHIT:          0  dMISS:          0  itACCESS:          0  itHIT:          0  itMISS:          0  dtACCESS:          0  dtHIT:          0  dtMISS:          0
cpu0_DTLB PREFETCH     ACCESS:          0  HIT:          0  MISS:          0  iACCESS:          0  iHIT:          0  iMISS:          0  dACCESS:          0  dHIT:          0  dMISS:          0  itACCESS:          0  itHIT:          0  itMISS:          0  dtACCESS:          0  dtHIT:          0  dtMISS:          0
cpu0_DTLB WRITE        ACCESS:          0  HIT:          0  MISS:          0  iACCESS:          0  iHIT:          0  iMISS:          0  dACCESS:          0  dHIT:          0  dMISS:          0  itACCESS:          0  itHIT:          0  itMISS:          0  dtACCESS:          0  dtHIT:          0  dtMISS:          0
cpu0_DTLB TRANSLATION  ACCESS:          0  HIT:          0  MISS:          0  iACCESS:          0  iHIT:          0  iMISS:          0  dACCESS:          0  dHIT:          0  dMISS:          0  itACCESS:          0  itHIT:          0  itMISS:          0  dtACCESS:          0  dtHIT:          0  dtMISS:          0
cpu0_DTLB PREFETCH  REQUESTED:          0  ISSUED:          0  CROSSED:          0  USEFUL:          0  USELESS:          0
cpu0_DTLB AVERAGE iMISS LATENCY: 0 cycles
cpu0_DTLB AVERAGE dMISS LATENCY: 7.78183 cycles
cpu0_DTLB AVERAGE itMISS LATENCY: 0 cycles
cpu0_DTLB AVERAGE dtMISS LATENCY: 0 cycles
cpu0_DTLB PAGE CROSSINGS (TLB HIT):         0 
cpu0_DTLB PAGE CROSSINGS (TLB MISS):         0 
cpu0_DTLB AVERAGE MISS LATENCY: 7.78183 cycles
cpu0_STLB TOTAL       ACCESS:    2272060  HIT:    2070242  MISS:     201818  iACCESS:     321363  iHIT:     247652  iMISS:      73711  dACCESS:    1950697  dHIT:    1822590  dMISS:     128107  itACCESS:          0  itHIT:          0  itMISS:          0  dtACCESS:          0  dtHIT:          0  dtMISS:          0
cpu0_STLB LOAD         ACCESS:    2272060  HIT:    2070242  MISS:     201818  iACCESS:     321363  iHIT:     247652  iMISS:      73711  dACCESS:    1950697  dHIT:    1822590  dMISS:     128107  itACCESS:          0  itHIT:          0  itMISS:          0  dtACCESS:          0  dtHIT:          0  dtMISS:          0
cpu0_STLB RFO          ACCESS:          0  HIT:          0  MISS:          0  iACCESS:          0  iHIT:          0  iMISS:          0  dACCESS:          0  dHIT:          0  dMISS:          0  itACCESS:          0  itHIT:          0  itMISS:          0  dtACCESS:          0  dtHIT:          0  dtMISS:          0
cpu0_STLB PREFETCH     ACCESS:          0  HIT:          0  MISS:          0  iACCESS:          0  iHIT:          0  iMISS:          0  dACCESS:          0  dHIT:          0  dMISS:          0  itACCESS:          0  itHIT:          0  itMISS:          0  dtACCESS:          0  dtHIT:          0  dtMISS:          0
cpu0_STLB WRITE        ACCESS:          0  HIT:          0  MISS:          0  iACCESS:          0  iHIT:          0  iMISS:          0  dACCESS:          0  dHIT:          0  dMISS:          0  itACCESS:          0  itHIT:          0  itMISS:          0  dtACCESS:          0  dtHIT:          0  dtMISS:          0
cpu0_STLB TRANSLATION  ACCESS:          0  HIT:          0  MISS:          0  iACCESS:          0  iHIT:          0  iMISS:          0  dACCESS:          0  dHIT:          0  dMISS:          0  itACCESS:          0  itHIT:          0  itMISS:          0  dtACCESS:          0  dtHIT:          0  dtMISS:          0
cpu0_STLB PREFETCH  REQUESTED:          0  ISSUED:          0  CROSSED:          0  USEFUL:          0  USELESS:          0
cpu0_STLB AVERAGE iMISS LATENCY: 25.7783 cycles
cpu0_STLB AVERAGE dMISS LATENCY: 63.9891 cycles
cpu0_STLB AVERAGE itMISS LATENCY: 0 cycles
cpu0_STLB AVERAGE dtMISS LATENCY: 0 cycles
cpu0_STLB PAGE CROSSINGS (TLB HIT):         0 
cpu0_STLB PAGE CROSSINGS (TLB MISS):         0 
cpu0_STLB AVERAGE MISS LATENCY: 89.7673 cycles
cpu0_L1D TOTAL       ACCESS:   47910192  HIT:   41001334  MISS:    6908858  iACCESS:          0  iHIT:          0  iMISS:          0  dACCESS:   47628507  dHIT:   40978699  dMISS:    6649808  itACCESS:      84981  itHIT:      11567  itMISS:      73414  dtACCESS:     196704  dtHIT:      11068  dtMISS:     185636
cpu0_L1D LOAD         ACCESS:   23232709  HIT:   19560632  MISS:    3672077  iACCESS:          0  iHIT:          0  iMISS:          0  dACCESS:   23232709  dHIT:   19560632  dMISS:    3672077  itACCESS:          0  itHIT:          0  itMISS:          0  dtACCESS:          0  dtHIT:          0  dtMISS:          0
cpu0_L1D RFO          ACCESS:          0  HIT:          0  MISS:          0  iACCESS:          0  iHIT:          0  iMISS:          0  dACCESS:          0  dHIT:          0  dMISS:          0  itACCESS:          0  itHIT:          0  itMISS:          0  dtACCESS:          0  dtHIT:          0  dtMISS:          0
cpu0_L1D PREFETCH     ACCESS:   14498005  HIT:   12174193  MISS:    2323812  iACCESS:          0  iHIT:          0  iMISS:          0  dACCESS:   14498005  dHIT:   12174193  dMISS:    2323812  itACCESS:          0  itHIT:          0  itMISS:          0  dtACCESS:          0  dtHIT:          0  dtMISS:          0
cpu0_L1D WRITE        ACCESS:    9897793  HIT:    9243874  MISS:     653919  iACCESS:          0  iHIT:          0  iMISS:          0  dACCESS:    9897793  dHIT:    9243874  dMISS:     653919  itACCESS:          0  itHIT:          0  itMISS:          0  dtACCESS:          0  dtHIT:          0  dtMISS:          0
cpu0_L1D TRANSLATION  ACCESS:     281685  HIT:      22635  MISS:     259050  iACCESS:          0  iHIT:          0  iMISS:          0  dACCESS:          0  dHIT:          0  dMISS:          0  itACCESS:      84981  itHIT:      11567  itMISS:      73414  dtACCESS:     196704  dtHIT:      11068  dtMISS:     185636
cpu0_L1D PREFETCH  REQUESTED:   23232709  ISSUED:   18929884  CROSSED:          0  USEFUL:     290145  USELESS:     754661
cpu0_L1D AVERAGE iMISS LATENCY: 0 cycles
cpu0_L1D AVERAGE dMISS LATENCY: 27.3225 cycles
cpu0_L1D AVERAGE itMISS LATENCY: 0.652732 cycles
cpu0_L1D AVERAGE dtMISS LATENCY: 1.59125 cycles
cpu0_L1D PAGE CROSSINGS (TLB HIT):         0 
cpu0_L1D PAGE CROSSINGS (TLB MISS):         0 
cpu0_L1D AVERAGE MISS LATENCY: 29.5665 cycles
cpu0_L2C TOTAL       ACCESS:    7691771  HIT:    2242455  MISS:    5449316  iACCESS:    2736667  iHIT:     652579  iMISS:    2084088  dACCESS:    4729145  dHIT:    1461305  dMISS:    3267840  itACCESS:      68215  itHIT:      41652  itMISS:      26563  dtACCESS:     157744  dtHIT:      86919  dtMISS:      70825
cpu0_L2C LOAD         ACCESS:    2931734  HIT:    1070276  MISS:    1861458  iACCESS:     634968  iHIT:     113512  iMISS:     521456  dACCESS:    2296766  dHIT:     956764  dMISS:    1340002  itACCESS:          0  itHIT:          0  itMISS:          0  dtACCESS:          0  dtHIT:          0  dtMISS:          0
cpu0_L2C RFO          ACCESS:     186217  HIT:      48059  MISS:     138158  iACCESS:          0  iHIT:          0  iMISS:          0  dACCESS:     186217  dHIT:      48059  dMISS:     138158  itACCESS:          0  itHIT:          0  itMISS:          0  dtACCESS:          0  dtHIT:          0  dtMISS:          0
cpu0_L2C PREFETCH     ACCESS:    4090460  HIT:     889296  MISS:    3201164  iACCESS:    2101699  iHIT:     539067  iMISS:    1562632  dACCESS:    1988761  dHIT:     350229  dMISS:    1638532  itACCESS:          0  itHIT:          0  itMISS:          0  dtACCESS:          0  dtHIT:          0  dtMISS:          0
cpu0_L2C WRITE        ACCESS:     257401  HIT:     106253  MISS:     151148  iACCESS:          0  iHIT:          0  iMISS:          0  dACCESS:     257401  dHIT:     106253  dMISS:     151148  itACCESS:          0  itHIT:          0  itMISS:          0  dtACCESS:          0  dtHIT:          0  dtMISS:          0
cpu0_L2C TRANSLATION  ACCESS:     225959  HIT:     128571  MISS:      97388  iACCESS:          0  iHIT:          0  iMISS:          0  dACCESS:          0  dHIT:          0  dMISS:          0  itACCESS:      68215  itHIT:      41652  itMISS:      26563  dtACCESS:     157744  dtHIT:      86919  dtMISS:      70825
cpu0_L2C PREFETCH  REQUESTED:    1118983  ISSUED:    1118983  CROSSED:          0  USEFUL:     286896  USELESS:     345687
cpu0_L2C AVERAGE iMISS LATENCY: 20.5227 cycles
cpu0_L2C AVERAGE dMISS LATENCY: 38.0239 cycles
cpu0_L2C AVERAGE itMISS LATENCY: 0.709718 cycles
cpu0_L2C AVERAGE dtMISS LATENCY: 1.74276 cycles
cpu0_L2C PAGE CROSSINGS (TLB HIT):         0 
cpu0_L2C PAGE CROSSINGS (TLB MISS):         0 
cpu0_L2C AVERAGE MISS LATENCY: 60.999 cycles
LLC TOTAL       ACCESS:    5312583  HIT:    3858150  MISS:    1454433  iACCESS:    2026811  iHIT:    1535040  iMISS:     491771  dACCESS:    3188384  dHIT:    2287201  dMISS:     901183  itACCESS:      26563  itHIT:       7498  itMISS:      19065  dtACCESS:      70825  dtHIT:      28411  dtMISS:      42414
LLC LOAD         ACCESS:    1855992  HIT:    1520777  MISS:     335215  iACCESS:     520388  iHIT:     421015  iMISS:      99373  dACCESS:    1335604  dHIT:    1099762  dMISS:     235842  itACCESS:          0  itHIT:          0  itMISS:          0  dtACCESS:          0  dtHIT:          0  dtMISS:          0
LLC RFO          ACCESS:     138142  HIT:      71971  MISS:      66171  iACCESS:          0  iHIT:          0  iMISS:          0  dACCESS:     138142  dHIT:      71971  dMISS:      66171  itACCESS:          0  itHIT:          0  itMISS:          0  dtACCESS:          0  dtHIT:          0  dtMISS:          0
LLC PREFETCH     ACCESS:    3058255  HIT:    2076313  MISS:     981942  iACCESS:    1506423  iHIT:    1114025  iMISS:     392398  dACCESS:    1551832  dHIT:     962288  dMISS:     589544  itACCESS:          0  itHIT:          0  itMISS:          0  dtACCESS:          0  dtHIT:          0  dtMISS:          0
LLC WRITE        ACCESS:     162806  HIT:     153180  MISS:       9626  iACCESS:          0  iHIT:          0  iMISS:          0  dACCESS:     162806  dHIT:     153180  dMISS:       9626  itACCESS:          0  itHIT:          0  itMISS:          0  dtACCESS:          0  dtHIT:          0  dtMISS:          0
LLC TRANSLATION  ACCESS:      97388  HIT:      35909  MISS:      61479  iACCESS:          0  iHIT:          0  iMISS:          0  dACCESS:          0  dHIT:          0  dMISS:          0  itACCESS:      26563  itHIT:       7498  itMISS:      19065  dtACCESS:      70825  dtHIT:      28411  dtMISS:      42414
LLC PREFETCH  REQUESTED:          0  ISSUED:          0  CROSSED:          0  USEFUL:          0  USELESS:          0
LLC AVERAGE iMISS LATENCY: 49.872 cycles
LLC AVERAGE dMISS LATENCY: 103.036 cycles
LLC AVERAGE itMISS LATENCY: 2.29997 cycles
LLC AVERAGE dtMISS LATENCY: 5.57729 cycles
LLC PAGE CROSSINGS (TLB HIT):         0 
LLC PAGE CROSSINGS (TLB MISS):         0 
LLC AVERAGE MISS LATENCY: 160.785 cycles

PageTableWalker TOTAL       ACCESS:      94280  
PageTableWalker AVERAGE LATENCY: 4.5223 cycles
PageTableWalker TOTAL LATENCY: 426362 cycles

DRAM Statistics
Channel 0
 RQ ROW_BUFFER_HIT:     436505
  ROW_BUFFER_MISS:     995668
 AVG DBUS CONGESTED CYCLE:    3.65477
 WQ ROW_BUFFER_HIT:      31469
  ROW_BUFFER_MISS:      29171  FULL:          0

