last_page:0x200000000000000
VMEM_RES_CAP:0x100000
PAGE_SIZE:4096
LOG2_PAGE_SIZE:12
LOG2_PAGE_TABLE_SIZE:9
page_table_levels:5
WARNING: physical memory size is smaller than virtual memory size
FDiP enabled with aggresivity 16

*** ChampSim Multicore Out-of-Order Simulator ***

Warmup Instructions: 50000000
Simulation Instructions: 100000000
Number of CPUs: 1
Small page size: 4096
Large page size: 2097152

CPU 0 Bimodal branch predictor
Basic BTB sets: 1024 ways: 8 indirect buffer size: 4096 RAS size: 64
Instruction page size distrubution: 0
Loading instruction page size distribution from /home/bsc/bsc018186/scratch/itp_asplos25_AE/dump/srv764_ap.pdst
Data page size distrubution: 0
Loading data page size distribution from /home/bsc/bsc018186/scratch/itp_asplos25_AE/dump/srv764_ap.pdst
cpu0_L2C IP-based stride prefetcher
cpu0_L1D next line prefetcher
cpu0_STLB using iTP with max lru@8
cpu0_STLB using iTP with instr@0 and data@2
Init sat counter with 3 bits (max:50).
cpu0_L1I next line prefetcher
Off-chip DRAM Size: 4 GiB Channels: 1 Width: 64-bit Data Rate: 3200 MT/s
Heartbeat CPU 0 instructions: 10000000 cycles: 2500095 heartbeat IPC: 3.99985 cumulative IPC: 3.99985 (Simulation time: 0 hr 0 min 37 sec) 
Heartbeat CPU 0 instructions: 20000002 cycles: 5000207 heartbeat IPC: 3.99983 cumulative IPC: 3.99984 (Simulation time: 0 hr 1 min 16 sec) 
Heartbeat CPU 0 instructions: 30000000 cycles: 7500253 heartbeat IPC: 3.99993 cumulative IPC: 3.99987 (Simulation time: 0 hr 1 min 55 sec) 
Heartbeat CPU 0 instructions: 40000001 cycles: 10000264 heartbeat IPC: 3.99999 cumulative IPC: 3.9999 (Simulation time: 0 hr 2 min 35 sec) 
Heartbeat CPU 0 instructions: 50000002 cycles: 12886294 heartbeat IPC: 3.46497 cumulative IPC: 3.8801 (Simulation time: 0 hr 3 min 16 sec) 
Warmup finished CPU 0 instructions: 50000002 cycles: 12886295 cumulative IPC: 3.8801 (Simulation time: 0 hr 3 min 16 sec) 

Warmup complete CPU 0 instructions: 50000002 cycles: 12886295 (Simulation time: 0 hr 3 min 16 sec) 

Heartbeat CPU 0 instructions: 60000003 cycles: 26544144 heartbeat IPC: 0.73218 cumulative IPC: 0.73218 (Simulation time: 0 hr 4 min 19 sec) 
Heartbeat CPU 0 instructions: 70000001 cycles: 47750513 heartbeat IPC: 0.471557 cumulative IPC: 0.573655 (Simulation time: 0 hr 5 min 33 sec) 
Heartbeat CPU 0 instructions: 80000001 cycles: 68259827 heartbeat IPC: 0.487584 cumulative IPC: 0.541776 (Simulation time: 0 hr 6 min 46 sec) 
Heartbeat CPU 0 instructions: 90000002 cycles: 88877312 heartbeat IPC: 0.485026 cumulative IPC: 0.526379 (Simulation time: 0 hr 7 min 59 sec) 
Heartbeat CPU 0 instructions: 100000000 cycles: 109064821 heartbeat IPC: 0.495356 cumulative IPC: 0.519867 (Simulation time: 0 hr 9 min 12 sec) 
*** Reached end of trace: /gpfs/projects/bsc18/MN4/bsc18/romol/ChampSim/traces/qualcomm_srv/srv764_ap.champsimtrace.xz
Heartbeat CPU 0 instructions: 110000004 cycles: 128865715 heartbeat IPC: 0.505028 cumulative IPC: 0.517334 (Simulation time: 0 hr 10 min 24 sec) 
Heartbeat CPU 0 instructions: 120000002 cycles: 149374413 heartbeat IPC: 0.487598 cumulative IPC: 0.512866 (Simulation time: 0 hr 11 min 37 sec) 
Heartbeat CPU 0 instructions: 130000000 cycles: 170596666 heartbeat IPC: 0.471204 cumulative IPC: 0.507259 (Simulation time: 0 hr 12 min 51 sec) 
Heartbeat CPU 0 instructions: 140000003 cycles: 191778617 heartbeat IPC: 0.472101 cumulative IPC: 0.503096 (Simulation time: 0 hr 14 min 4 sec) 
Heartbeat CPU 0 instructions: 150000001 cycles: 206968908 heartbeat IPC: 0.658316 cumulative IPC: 0.515245 (Simulation time: 0 hr 15 min 10 sec) 
Simulation finished CPU 0 instructions: 100000004 cycles: 194082615 cumulative IPC: 0.515245 (Simulation time: 0 hr 15 min 10 sec) 

Simulation complete CPU 0 instructions: 100000004 cycles: 194082615 (Simulation time: 0 hr 15 min 10 sec) 


ChampSim completed all CPUs

Saving instructions large page distribution to /home/bsc/bsc018186/scratch/itp_asplos25_AE/dump/srv764_ap.pdst...
Saving data large page distribution to /home/bsc/bsc018186/scratch/itp_asplos25_AE/dump/srv764_ap.pdst...
=== Simulation ===
CPU 0 runs /gpfs/projects/bsc18/MN4/bsc18/romol/ChampSim/traces/qualcomm_srv/srv764_ap.champsimtrace.xz

Region of Interest Statistics

CPU 0 cumulative IPC: 0.515245 instructions: 100000004 cycles: 194082615
CPU 0 Branch Prediction Accuracy: 82.3659% MPKI: 33.5305 Average ROB Occupancy at Mispredict: 11.5294
Branch type MPKI
BRANCH_DIRECT_JUMP: 1.21738
BRANCH_INDIRECT: 16.9293
BRANCH_CONDITIONAL: 10.8073
BRANCH_DIRECT_CALL: 2.28574
BRANCH_INDIRECT_CALL: 0.6881
BRANCH_RETURN: 1.60283

Instructions large pages: 0
Instructions small pages: 5930
Large page distribution for instructions: 0%

Data large pages: 0
Data small pages: 4775
Large page distribution for data: 0%

cpu0_L1I TOTAL       ACCESS:   34755208  HIT:   27508111  MISS:    7247097  iACCESS:   34755208  iHIT:   27508111  iMISS:    7247097  dACCESS:          0  dHIT:          0  dMISS:          0  itACCESS:          0  itHIT:          0  itMISS:          0  dtACCESS:          0  dtHIT:          0  dtMISS:          0
cpu0_L1I LOAD         ACCESS:    9422336  HIT:    7431516  MISS:    1990820  iACCESS:    9422336  iHIT:    7431516  iMISS:    1990820  dACCESS:          0  dHIT:          0  dMISS:          0  itACCESS:          0  itHIT:          0  itMISS:          0  dtACCESS:          0  dtHIT:          0  dtMISS:          0
cpu0_L1I RFO          ACCESS:          0  HIT:          0  MISS:          0  iACCESS:          0  iHIT:          0  iMISS:          0  dACCESS:          0  dHIT:          0  dMISS:          0  itACCESS:          0  itHIT:          0  itMISS:          0  dtACCESS:          0  dtHIT:          0  dtMISS:          0
cpu0_L1I PREFETCH     ACCESS:   25332872  HIT:   20076595  MISS:    5256277  iACCESS:   25332872  iHIT:   20076595  iMISS:    5256277  dACCESS:          0  dHIT:          0  dMISS:          0  itACCESS:          0  itHIT:          0  itMISS:          0  dtACCESS:          0  dtHIT:          0  dtMISS:          0
cpu0_L1I WRITE        ACCESS:          0  HIT:          0  MISS:          0  iACCESS:          0  iHIT:          0  iMISS:          0  dACCESS:          0  dHIT:          0  dMISS:          0  itACCESS:          0  itHIT:          0  itMISS:          0  dtACCESS:          0  dtHIT:          0  dtMISS:          0
cpu0_L1I TRANSLATION  ACCESS:          0  HIT:          0  MISS:          0  iACCESS:          0  iHIT:          0  iMISS:          0  dACCESS:          0  dHIT:          0  dMISS:          0  itACCESS:          0  itHIT:          0  itMISS:          0  dtACCESS:          0  dtHIT:          0  dtMISS:          0
cpu0_L1I PREFETCH  REQUESTED:   27508390  ISSUED:   27508390  CROSSED:          0  USEFUL:    1816412  USELESS:     604937
cpu0_L1I AVERAGE iMISS LATENCY: 19.9842 cycles
cpu0_L1I AVERAGE dMISS LATENCY: 0 cycles
cpu0_L1I AVERAGE itMISS LATENCY: 0 cycles
cpu0_L1I AVERAGE dtMISS LATENCY: 0 cycles
cpu0_L1I PAGE CROSSINGS (TLB HIT):         0 
cpu0_L1I PAGE CROSSINGS (TLB MISS):         0 
cpu0_L1I AVERAGE MISS LATENCY: 19.9842 cycles
cpu0_ITLB TOTAL       ACCESS:   29370670  HIT:   27577434  MISS:    1793236  iACCESS:   29370670  iHIT:   27577434  iMISS:    1793236  dACCESS:          0  dHIT:          0  dMISS:          0  itACCESS:          0  itHIT:          0  itMISS:          0  dtACCESS:          0  dtHIT:          0  dtMISS:          0
cpu0_ITLB LOAD         ACCESS:   29370670  HIT:   27577434  MISS:    1793236  iACCESS:   29370670  iHIT:   27577434  iMISS:    1793236  dACCESS:          0  dHIT:          0  dMISS:          0  itACCESS:          0  itHIT:          0  itMISS:          0  dtACCESS:          0  dtHIT:          0  dtMISS:          0
cpu0_ITLB RFO          ACCESS:          0  HIT:          0  MISS:          0  iACCESS:          0  iHIT:          0  iMISS:          0  dACCESS:          0  dHIT:          0  dMISS:          0  itACCESS:          0  itHIT:          0  itMISS:          0  dtACCESS:          0  dtHIT:          0  dtMISS:          0
cpu0_ITLB PREFETCH     ACCESS:          0  HIT:          0  MISS:          0  iACCESS:          0  iHIT:          0  iMISS:          0  dACCESS:          0  dHIT:          0  dMISS:          0  itACCESS:          0  itHIT:          0  itMISS:          0  dtACCESS:          0  dtHIT:          0  dtMISS:          0
cpu0_ITLB WRITE        ACCESS:          0  HIT:          0  MISS:          0  iACCESS:          0  iHIT:          0  iMISS:          0  dACCESS:          0  dHIT:          0  dMISS:          0  itACCESS:          0  itHIT:          0  itMISS:          0  dtACCESS:          0  dtHIT:          0  dtMISS:          0
cpu0_ITLB TRANSLATION  ACCESS:          0  HIT:          0  MISS:          0  iACCESS:          0  iHIT:          0  iMISS:          0  dACCESS:          0  dHIT:          0  dMISS:          0  itACCESS:          0  itHIT:          0  itMISS:          0  dtACCESS:          0  dtHIT:          0  dtMISS:          0
cpu0_ITLB PREFETCH  REQUESTED:          0  ISSUED:          0  CROSSED:          0  USEFUL:     304315  USELESS:      57470
cpu0_ITLB AVERAGE iMISS LATENCY: 3.73766 cycles
cpu0_ITLB AVERAGE dMISS LATENCY: 0 cycles
cpu0_ITLB AVERAGE itMISS LATENCY: 0 cycles
cpu0_ITLB AVERAGE dtMISS LATENCY: 0 cycles
cpu0_ITLB PAGE CROSSINGS (TLB HIT):         0 
cpu0_ITLB PAGE CROSSINGS (TLB MISS):         0 
cpu0_ITLB AVERAGE MISS LATENCY: 3.73766 cycles
cpu0_DTLB TOTAL       ACCESS:   29315062  HIT:   25719574  MISS:    3595488  iACCESS:          0  iHIT:          0  iMISS:          0  dACCESS:   29315062  dHIT:   25719574  dMISS:    3595488  itACCESS:          0  itHIT:          0  itMISS:          0  dtACCESS:          0  dtHIT:          0  dtMISS:          0
cpu0_DTLB LOAD         ACCESS:   29315062  HIT:   25719574  MISS:    3595488  iACCESS:          0  iHIT:          0  iMISS:          0  dACCESS:   29315062  dHIT:   25719574  dMISS:    3595488  itACCESS:          0  itHIT:          0  itMISS:          0  dtACCESS:          0  dtHIT:          0  dtMISS:          0
cpu0_DTLB RFO          ACCESS:          0  HIT:          0  MISS:          0  iACCESS:          0  iHIT:          0  iMISS:          0  dACCESS:          0  dHIT:          0  dMISS:          0  itACCESS:          0  itHIT:          0  itMISS:          0  dtACCESS:          0  dtHIT:          0  dtMISS:          0
cpu0_DTLB PREFETCH     ACCESS:          0  HIT:          0  MISS:          0  iACCESS:          0  iHIT:          0  iMISS:          0  dACCESS:          0  dHIT:          0  dMISS:          0  itACCESS:          0  itHIT:          0  itMISS:          0  dtACCESS:          0  dtHIT:          0  dtMISS:          0
cpu0_DTLB WRITE        ACCESS:          0  HIT:          0  MISS:          0  iACCESS:          0  iHIT:          0  iMISS:          0  dACCESS:          0  dHIT:          0  dMISS:          0  itACCESS:          0  itHIT:          0  itMISS:          0  dtACCESS:          0  dtHIT:          0  dtMISS:          0
cpu0_DTLB TRANSLATION  ACCESS:          0  HIT:          0  MISS:          0  iACCESS:          0  iHIT:          0  iMISS:          0  dACCESS:          0  dHIT:          0  dMISS:          0  itACCESS:          0  itHIT:          0  itMISS:          0  dtACCESS:          0  dtHIT:          0  dtMISS:          0
cpu0_DTLB PREFETCH  REQUESTED:          0  ISSUED:          0  CROSSED:          0  USEFUL:          0  USELESS:          0
cpu0_DTLB AVERAGE iMISS LATENCY: 0 cycles
cpu0_DTLB AVERAGE dMISS LATENCY: 13.8464 cycles
cpu0_DTLB AVERAGE itMISS LATENCY: 0 cycles
cpu0_DTLB AVERAGE dtMISS LATENCY: 0 cycles
cpu0_DTLB PAGE CROSSINGS (TLB HIT):         0 
cpu0_DTLB PAGE CROSSINGS (TLB MISS):         0 
cpu0_DTLB AVERAGE MISS LATENCY: 13.8464 cycles
cpu0_STLB TOTAL       ACCESS:    2312511  HIT:    2120320  MISS:     192191  iACCESS:     361785  iHIT:     339351  iMISS:      22434  dACCESS:    1950726  dHIT:    1780969  dMISS:     169757  itACCESS:          0  itHIT:          0  itMISS:          0  dtACCESS:          0  dtHIT:          0  dtMISS:          0
cpu0_STLB LOAD         ACCESS:    2312511  HIT:    2120320  MISS:     192191  iACCESS:     361785  iHIT:     339351  iMISS:      22434  dACCESS:    1950726  dHIT:    1780969  dMISS:     169757  itACCESS:          0  itHIT:          0  itMISS:          0  dtACCESS:          0  dtHIT:          0  dtMISS:          0
cpu0_STLB RFO          ACCESS:          0  HIT:          0  MISS:          0  iACCESS:          0  iHIT:          0  iMISS:          0  dACCESS:          0  dHIT:          0  dMISS:          0  itACCESS:          0  itHIT:          0  itMISS:          0  dtACCESS:          0  dtHIT:          0  dtMISS:          0
cpu0_STLB PREFETCH     ACCESS:          0  HIT:          0  MISS:          0  iACCESS:          0  iHIT:          0  iMISS:          0  dACCESS:          0  dHIT:          0  dMISS:          0  itACCESS:          0  itHIT:          0  itMISS:          0  dtACCESS:          0  dtHIT:          0  dtMISS:          0
cpu0_STLB WRITE        ACCESS:          0  HIT:          0  MISS:          0  iACCESS:          0  iHIT:          0  iMISS:          0  dACCESS:          0  dHIT:          0  dMISS:          0  itACCESS:          0  itHIT:          0  itMISS:          0  dtACCESS:          0  dtHIT:          0  dtMISS:          0
cpu0_STLB TRANSLATION  ACCESS:          0  HIT:          0  MISS:          0  iACCESS:          0  iHIT:          0  iMISS:          0  dACCESS:          0  dHIT:          0  dMISS:          0  itACCESS:          0  itHIT:          0  itMISS:          0  dtACCESS:          0  dtHIT:          0  dtMISS:          0
cpu0_STLB PREFETCH  REQUESTED:          0  ISSUED:          0  CROSSED:          0  USEFUL:          0  USELESS:          0
cpu0_STLB AVERAGE iMISS LATENCY: 20.1785 cycles
cpu0_STLB AVERAGE dMISS LATENCY: 176.757 cycles
cpu0_STLB AVERAGE itMISS LATENCY: 0 cycles
cpu0_STLB AVERAGE dtMISS LATENCY: 0 cycles
cpu0_STLB PAGE CROSSINGS (TLB HIT):         0 
cpu0_STLB PAGE CROSSINGS (TLB MISS):         0 
cpu0_STLB AVERAGE MISS LATENCY: 196.935 cycles
cpu0_L1D TOTAL       ACCESS:   44619063  HIT:   38782249  MISS:    5836814  iACCESS:          0  iHIT:          0  iMISS:          0  dACCESS:   44360515  dHIT:   38766493  dMISS:    5594022  itACCESS:      25399  itHIT:       1898  itMISS:      23501  dtACCESS:     233149  dtHIT:      13858  dtMISS:     219291
cpu0_L1D LOAD         ACCESS:   21189473  HIT:   17983394  MISS:    3206079  iACCESS:          0  iHIT:          0  iMISS:          0  dACCESS:   21189473  dHIT:   17983394  dMISS:    3206079  itACCESS:          0  itHIT:          0  itMISS:          0  dtACCESS:          0  dtHIT:          0  dtMISS:          0
cpu0_L1D RFO          ACCESS:          0  HIT:          0  MISS:          0  iACCESS:          0  iHIT:          0  iMISS:          0  dACCESS:          0  dHIT:          0  dMISS:          0  itACCESS:          0  itHIT:          0  itMISS:          0  dtACCESS:          0  dtHIT:          0  dtMISS:          0
cpu0_L1D PREFETCH     ACCESS:   13266675  HIT:   11342418  MISS:    1924257  iACCESS:          0  iHIT:          0  iMISS:          0  dACCESS:   13266675  dHIT:   11342418  dMISS:    1924257  itACCESS:          0  itHIT:          0  itMISS:          0  dtACCESS:          0  dtHIT:          0  dtMISS:          0
cpu0_L1D WRITE        ACCESS:    9904367  HIT:    9440681  MISS:     463686  iACCESS:          0  iHIT:          0  iMISS:          0  dACCESS:    9904367  dHIT:    9440681  dMISS:     463686  itACCESS:          0  itHIT:          0  itMISS:          0  dtACCESS:          0  dtHIT:          0  dtMISS:          0
cpu0_L1D TRANSLATION  ACCESS:     258548  HIT:      15756  MISS:     242792  iACCESS:          0  iHIT:          0  iMISS:          0  dACCESS:          0  dHIT:          0  dMISS:          0  itACCESS:      25399  itHIT:       1898  itMISS:      23501  dtACCESS:     233149  dtHIT:      13858  dtMISS:     219291
cpu0_L1D PREFETCH  REQUESTED:   21189473  ISSUED:   17464795  CROSSED:          0  USEFUL:     284508  USELESS:     767349
cpu0_L1D AVERAGE iMISS LATENCY: 0 cycles
cpu0_L1D AVERAGE dMISS LATENCY: 30.4039 cycles
cpu0_L1D AVERAGE itMISS LATENCY: 0.624068 cycles
cpu0_L1D AVERAGE dtMISS LATENCY: 5.41918 cycles
cpu0_L1D PAGE CROSSINGS (TLB HIT):         0 
cpu0_L1D PAGE CROSSINGS (TLB MISS):         0 
cpu0_L1D AVERAGE MISS LATENCY: 36.4471 cycles
cpu0_L2C TOTAL       ACCESS:    8103467  HIT:    4832246  MISS:    3271221  iACCESS:    3095459  iHIT:    1873661  iMISS:    1221798  dACCESS:    4771482  dHIT:    2922233  dMISS:    1849249  itACCESS:      23501  itHIT:       3430  itMISS:      20071  dtACCESS:     213025  dtHIT:      32922  dtMISS:     180103
cpu0_L2C LOAD         ACCESS:    2852773  HIT:    2105596  MISS:     747177  iACCESS:     709224  iHIT:     455276  iMISS:     253948  dACCESS:    2143549  dHIT:    1650320  dMISS:     493229  itACCESS:          0  itHIT:          0  itMISS:          0  dtACCESS:          0  dtHIT:          0  dtMISS:          0
cpu0_L2C RFO          ACCESS:     166699  HIT:      73922  MISS:      92777  iACCESS:          0  iHIT:          0  iMISS:          0  dACCESS:     166699  dHIT:      73922  dMISS:      92777  itACCESS:          0  itHIT:          0  itMISS:          0  dtACCESS:          0  dtHIT:          0  dtMISS:          0
cpu0_L2C PREFETCH     ACCESS:    4593586  HIT:    2363694  MISS:    2229892  iACCESS:    2386235  iHIT:    1418385  iMISS:     967850  dACCESS:    2207351  dHIT:     945309  dMISS:    1262042  itACCESS:          0  itHIT:          0  itMISS:          0  dtACCESS:          0  dtHIT:          0  dtMISS:          0
cpu0_L2C WRITE        ACCESS:     253883  HIT:     252682  MISS:       1201  iACCESS:          0  iHIT:          0  iMISS:          0  dACCESS:     253883  dHIT:     252682  dMISS:       1201  itACCESS:          0  itHIT:          0  itMISS:          0  dtACCESS:          0  dtHIT:          0  dtMISS:          0
cpu0_L2C TRANSLATION  ACCESS:     236526  HIT:      36352  MISS:     200174  iACCESS:          0  iHIT:          0  iMISS:          0  dACCESS:          0  dHIT:          0  dMISS:          0  itACCESS:      23501  itHIT:       3430  itMISS:      20071  dtACCESS:     213025  dtHIT:      32922  dtMISS:     180103
cpu0_L2C PREFETCH  REQUESTED:    1389386  ISSUED:    1389386  CROSSED:          0  USEFUL:     323839  USELESS:     276277
cpu0_L2C AVERAGE iMISS LATENCY: 35.989 cycles
cpu0_L2C AVERAGE dMISS LATENCY: 62.6014 cycles
cpu0_L2C AVERAGE itMISS LATENCY: 1.04248 cycles
cpu0_L2C AVERAGE dtMISS LATENCY: 9.02428 cycles
cpu0_L2C PAGE CROSSINGS (TLB HIT):         0 
cpu0_L2C PAGE CROSSINGS (TLB MISS):         0 
cpu0_L2C AVERAGE MISS LATENCY: 108.658 cycles
LLC TOTAL       ACCESS:    3233802  HIT:    1406886  MISS:    1826916  iACCESS:    1147707  iHIT:     508686  iMISS:     639021  dACCESS:    1885921  dHIT:     853225  dMISS:    1032696  itACCESS:      20071  itHIT:       3127  itMISS:      16944  dtACCESS:     180103  dtHIT:      41848  dtMISS:     138255
LLC LOAD         ACCESS:     741568  HIT:     342740  MISS:     398828  iACCESS:     252842  iHIT:     117515  iMISS:     135327  dACCESS:     488726  dHIT:     225225  dMISS:     263501  itACCESS:          0  itHIT:          0  itMISS:          0  dtACCESS:          0  dtHIT:          0  dtMISS:          0
LLC RFO          ACCESS:      92770  HIT:      35732  MISS:      57038  iACCESS:          0  iHIT:          0  iMISS:          0  dACCESS:      92770  dHIT:      35732  dMISS:      57038  itACCESS:          0  itHIT:          0  itMISS:          0  dtACCESS:          0  dtHIT:          0  dtMISS:          0
LLC PREFETCH     ACCESS:    2062345  HIT:     854782  MISS:    1207563  iACCESS:     894865  iHIT:     391171  iMISS:     503694  dACCESS:    1167480  dHIT:     463611  dMISS:     703869  itACCESS:          0  itHIT:          0  itMISS:          0  dtACCESS:          0  dtHIT:          0  dtMISS:          0
LLC WRITE        ACCESS:     136945  HIT:     128657  MISS:       8288  iACCESS:          0  iHIT:          0  iMISS:          0  dACCESS:     136945  dHIT:     128657  dMISS:       8288  itACCESS:          0  itHIT:          0  itMISS:          0  dtACCESS:          0  dtHIT:          0  dtMISS:          0
LLC TRANSLATION  ACCESS:     200174  HIT:      44975  MISS:     155199  iACCESS:          0  iHIT:          0  iMISS:          0  dACCESS:          0  dHIT:          0  dMISS:          0  itACCESS:      20071  itHIT:       3127  itMISS:      16944  dtACCESS:     180103  dtHIT:      41848  dtMISS:     138255
LLC PREFETCH  REQUESTED:          0  ISSUED:          0  CROSSED:          0  USEFUL:          0  USELESS:          0
LLC AVERAGE iMISS LATENCY: 52.147 cycles
LLC AVERAGE dMISS LATENCY: 94.4038 cycles
LLC AVERAGE itMISS LATENCY: 1.64948 cycles
LLC AVERAGE dtMISS LATENCY: 14.2184 cycles
LLC PAGE CROSSINGS (TLB HIT):         0 
LLC PAGE CROSSINGS (TLB MISS):         0 
LLC AVERAGE MISS LATENCY: 162.419 cycles

PageTableWalker TOTAL       ACCESS:      88653  
PageTableWalker AVERAGE LATENCY: 5.29153 cycles
PageTableWalker TOTAL LATENCY: 469110 cycles

DRAM Statistics
Channel 0
 RQ ROW_BUFFER_HIT:     495376
  ROW_BUFFER_MISS:    1309509
 AVG DBUS CONGESTED CYCLE:     3.6364
 WQ ROW_BUFFER_HIT:      35185
  ROW_BUFFER_MISS:      24423  FULL:          0

