last_page:0x200000000000000
VMEM_RES_CAP:0x100000
PAGE_SIZE:4096
LOG2_PAGE_SIZE:12
LOG2_PAGE_TABLE_SIZE:9
page_table_levels:5
WARNING: physical memory size is smaller than virtual memory size
FDiP enabled with aggresivity 16

*** ChampSim Multicore Out-of-Order Simulator ***

Warmup Instructions: 50000000
Simulation Instructions: 100000000
Number of CPUs: 1
Small page size: 4096
Large page size: 2097152

CPU 0 Bimodal branch predictor
Basic BTB sets: 1024 ways: 8 indirect buffer size: 4096 RAS size: 64
Instruction page size distrubution: 0
Loading instruction page size distribution from /home/bsc/bsc018186/scratch/itp_asplos25_AE/dump/srv760_ap.pdst
Data page size distrubution: 0
Loading data page size distribution from /home/bsc/bsc018186/scratch/itp_asplos25_AE/dump/srv760_ap.pdst
cpu0_L2C IP-based stride prefetcher
cpu0_L1D next line prefetcher
cpu0_L1I next line prefetcher
Off-chip DRAM Size: 4 GiB Channels: 1 Width: 64-bit Data Rate: 3200 MT/s
Heartbeat CPU 0 instructions: 10000003 cycles: 2500356 heartbeat IPC: 3.99944 cumulative IPC: 3.99944 (Simulation time: 0 hr 0 min 38 sec) 
Heartbeat CPU 0 instructions: 20000003 cycles: 5000356 heartbeat IPC: 4 cumulative IPC: 3.99972 (Simulation time: 0 hr 1 min 19 sec) 
Heartbeat CPU 0 instructions: 30000001 cycles: 7500560 heartbeat IPC: 3.99968 cumulative IPC: 3.99971 (Simulation time: 0 hr 2 min 0 sec) 
Heartbeat CPU 0 instructions: 40000000 cycles: 10000566 heartbeat IPC: 4 cumulative IPC: 3.99978 (Simulation time: 0 hr 2 min 42 sec) 
Heartbeat CPU 0 instructions: 50000002 cycles: 12500938 heartbeat IPC: 3.99941 cumulative IPC: 3.99971 (Simulation time: 0 hr 3 min 24 sec) 
Warmup finished CPU 0 instructions: 50000002 cycles: 12500939 cumulative IPC: 3.9997 (Simulation time: 0 hr 3 min 24 sec) 

Warmup complete CPU 0 instructions: 50000002 cycles: 12500939 (Simulation time: 0 hr 3 min 24 sec) 

Heartbeat CPU 0 instructions: 60000004 cycles: 27120268 heartbeat IPC: 0.684027 cumulative IPC: 0.684027 (Simulation time: 0 hr 4 min 30 sec) 
Heartbeat CPU 0 instructions: 70000001 cycles: 42236403 heartbeat IPC: 0.661545 cumulative IPC: 0.672598 (Simulation time: 0 hr 5 min 36 sec) 
Heartbeat CPU 0 instructions: 80000000 cycles: 57058971 heartbeat IPC: 0.674647 cumulative IPC: 0.67328 (Simulation time: 0 hr 6 min 42 sec) 
Heartbeat CPU 0 instructions: 90000004 cycles: 71475019 heartbeat IPC: 0.693672 cumulative IPC: 0.678265 (Simulation time: 0 hr 7 min 48 sec) 
Heartbeat CPU 0 instructions: 100000001 cycles: 86383577 heartbeat IPC: 0.670756 cumulative IPC: 0.676749 (Simulation time: 0 hr 8 min 54 sec) 
*** Reached end of trace: /gpfs/projects/bsc18/MN4/bsc18/romol/ChampSim/traces/qualcomm_srv/srv760_ap.champsimtrace.xz
Heartbeat CPU 0 instructions: 110000003 cycles: 100834830 heartbeat IPC: 0.691982 cumulative IPC: 0.679242 (Simulation time: 0 hr 10 min 0 sec) 
Heartbeat CPU 0 instructions: 120000000 cycles: 114158095 heartbeat IPC: 0.750567 cumulative IPC: 0.688589 (Simulation time: 0 hr 11 min 4 sec) 
Heartbeat CPU 0 instructions: 130000003 cycles: 128346917 heartbeat IPC: 0.704781 cumulative IPC: 0.690573 (Simulation time: 0 hr 12 min 10 sec) 
Heartbeat CPU 0 instructions: 140000002 cycles: 141772000 heartbeat IPC: 0.744875 cumulative IPC: 0.696212 (Simulation time: 0 hr 13 min 15 sec) 
Heartbeat CPU 0 instructions: 150000001 cycles: 156405291 heartbeat IPC: 0.683374 cumulative IPC: 0.694907 (Simulation time: 0 hr 14 min 22 sec) 
Simulation finished CPU 0 instructions: 100000001 cycles: 143904354 cumulative IPC: 0.694907 (Simulation time: 0 hr 14 min 22 sec) 

Simulation complete CPU 0 instructions: 100000001 cycles: 143904354 (Simulation time: 0 hr 14 min 22 sec) 


ChampSim completed all CPUs

Saving instructions large page distribution to /home/bsc/bsc018186/scratch/itp_asplos25_AE/dump/srv760_ap.pdst...
Saving data large page distribution to /home/bsc/bsc018186/scratch/itp_asplos25_AE/dump/srv760_ap.pdst...
=== Simulation ===
CPU 0 runs /gpfs/projects/bsc18/MN4/bsc18/romol/ChampSim/traces/qualcomm_srv/srv760_ap.champsimtrace.xz

Region of Interest Statistics

CPU 0 cumulative IPC: 0.694907 instructions: 100000001 cycles: 143904354
CPU 0 Branch Prediction Accuracy: 83.3871% MPKI: 29.7046 Average ROB Occupancy at Mispredict: 12.3989
Branch type MPKI
BRANCH_DIRECT_JUMP: 1.02208
BRANCH_INDIRECT: 15.2815
BRANCH_CONDITIONAL: 9.72535
BRANCH_DIRECT_CALL: 1.83908
BRANCH_INDIRECT_CALL: 0.5038
BRANCH_RETURN: 1.33272

Instructions large pages: 0
Instructions small pages: 11499
Large page distribution for instructions: 0%

Data large pages: 0
Data small pages: 10439
Large page distribution for data: 0%

cpu0_L1I TOTAL       ACCESS:   35098262  HIT:   26816817  MISS:    8281445  iACCESS:   35098262  iHIT:   26816817  iMISS:    8281445  dACCESS:          0  dHIT:          0  dMISS:          0  itACCESS:          0  itHIT:          0  itMISS:          0  dtACCESS:          0  dtHIT:          0  dtMISS:          0
cpu0_L1I LOAD         ACCESS:   10291676  HIT:    7973377  MISS:    2318299  iACCESS:   10291676  iHIT:    7973377  iMISS:    2318299  dACCESS:          0  dHIT:          0  dMISS:          0  itACCESS:          0  itHIT:          0  itMISS:          0  dtACCESS:          0  dtHIT:          0  dtMISS:          0
cpu0_L1I RFO          ACCESS:          0  HIT:          0  MISS:          0  iACCESS:          0  iHIT:          0  iMISS:          0  dACCESS:          0  dHIT:          0  dMISS:          0  itACCESS:          0  itHIT:          0  itMISS:          0  dtACCESS:          0  dtHIT:          0  dtMISS:          0
cpu0_L1I PREFETCH     ACCESS:   24806586  HIT:   18843440  MISS:    5963146  iACCESS:   24806586  iHIT:   18843440  iMISS:    5963146  dACCESS:          0  dHIT:          0  dMISS:          0  itACCESS:          0  itHIT:          0  itMISS:          0  dtACCESS:          0  dtHIT:          0  dtMISS:          0
cpu0_L1I WRITE        ACCESS:          0  HIT:          0  MISS:          0  iACCESS:          0  iHIT:          0  iMISS:          0  dACCESS:          0  dHIT:          0  dMISS:          0  itACCESS:          0  itHIT:          0  itMISS:          0  dtACCESS:          0  dtHIT:          0  dtMISS:          0
cpu0_L1I TRANSLATION  ACCESS:          0  HIT:          0  MISS:          0  iACCESS:          0  iHIT:          0  iMISS:          0  dACCESS:          0  dHIT:          0  dMISS:          0  itACCESS:          0  itHIT:          0  itMISS:          0  dtACCESS:          0  dtHIT:          0  dtMISS:          0
cpu0_L1I PREFETCH  REQUESTED:   27158878  ISSUED:   27157469  CROSSED:          0  USEFUL:    1890835  USELESS:     623509
cpu0_L1I AVERAGE iMISS LATENCY: 14.0269 cycles
cpu0_L1I AVERAGE dMISS LATENCY: 0 cycles
cpu0_L1I AVERAGE itMISS LATENCY: 0 cycles
cpu0_L1I AVERAGE dtMISS LATENCY: 0 cycles
cpu0_L1I PAGE CROSSINGS (TLB HIT):         0 
cpu0_L1I PAGE CROSSINGS (TLB MISS):         0 
cpu0_L1I AVERAGE MISS LATENCY: 14.0269 cycles
cpu0_ITLB TOTAL       ACCESS:   29057512  HIT:   27100938  MISS:    1956574  iACCESS:   29057512  iHIT:   27100938  iMISS:    1956574  dACCESS:          0  dHIT:          0  dMISS:          0  itACCESS:          0  itHIT:          0  itMISS:          0  dtACCESS:          0  dtHIT:          0  dtMISS:          0
cpu0_ITLB LOAD         ACCESS:   29057512  HIT:   27100938  MISS:    1956574  iACCESS:   29057512  iHIT:   27100938  iMISS:    1956574  dACCESS:          0  dHIT:          0  dMISS:          0  itACCESS:          0  itHIT:          0  itMISS:          0  dtACCESS:          0  dtHIT:          0  dtMISS:          0
cpu0_ITLB RFO          ACCESS:          0  HIT:          0  MISS:          0  iACCESS:          0  iHIT:          0  iMISS:          0  dACCESS:          0  dHIT:          0  dMISS:          0  itACCESS:          0  itHIT:          0  itMISS:          0  dtACCESS:          0  dtHIT:          0  dtMISS:          0
cpu0_ITLB PREFETCH     ACCESS:          0  HIT:          0  MISS:          0  iACCESS:          0  iHIT:          0  iMISS:          0  dACCESS:          0  dHIT:          0  dMISS:          0  itACCESS:          0  itHIT:          0  itMISS:          0  dtACCESS:          0  dtHIT:          0  dtMISS:          0
cpu0_ITLB WRITE        ACCESS:          0  HIT:          0  MISS:          0  iACCESS:          0  iHIT:          0  iMISS:          0  dACCESS:          0  dHIT:          0  dMISS:          0  itACCESS:          0  itHIT:          0  itMISS:          0  dtACCESS:          0  dtHIT:          0  dtMISS:          0
cpu0_ITLB TRANSLATION  ACCESS:          0  HIT:          0  MISS:          0  iACCESS:          0  iHIT:          0  iMISS:          0  dACCESS:          0  dHIT:          0  dMISS:          0  itACCESS:          0  itHIT:          0  itMISS:          0  dtACCESS:          0  dtHIT:          0  dtMISS:          0
cpu0_ITLB PREFETCH  REQUESTED:          0  ISSUED:          0  CROSSED:          0  USEFUL:     320006  USELESS:      65875
cpu0_ITLB AVERAGE iMISS LATENCY: 3.1584 cycles
cpu0_ITLB AVERAGE dMISS LATENCY: 0 cycles
cpu0_ITLB AVERAGE itMISS LATENCY: 0 cycles
cpu0_ITLB AVERAGE dtMISS LATENCY: 0 cycles
cpu0_ITLB PAGE CROSSINGS (TLB HIT):         0 
cpu0_ITLB PAGE CROSSINGS (TLB MISS):         0 
cpu0_ITLB AVERAGE MISS LATENCY: 3.1584 cycles
cpu0_DTLB TOTAL       ACCESS:   27688902  HIT:   25806165  MISS:    1882737  iACCESS:          0  iHIT:          0  iMISS:          0  dACCESS:   27688902  dHIT:   25806165  dMISS:    1882737  itACCESS:          0  itHIT:          0  itMISS:          0  dtACCESS:          0  dtHIT:          0  dtMISS:          0
cpu0_DTLB LOAD         ACCESS:   27688902  HIT:   25806165  MISS:    1882737  iACCESS:          0  iHIT:          0  iMISS:          0  dACCESS:   27688902  dHIT:   25806165  dMISS:    1882737  itACCESS:          0  itHIT:          0  itMISS:          0  dtACCESS:          0  dtHIT:          0  dtMISS:          0
cpu0_DTLB RFO          ACCESS:          0  HIT:          0  MISS:          0  iACCESS:          0  iHIT:          0  iMISS:          0  dACCESS:          0  dHIT:          0  dMISS:          0  itACCESS:          0  itHIT:          0  itMISS:          0  dtACCESS:          0  dtHIT:          0  dtMISS:          0
cpu0_DTLB PREFETCH     ACCESS:          0  HIT:          0  MISS:          0  iACCESS:          0  iHIT:          0  iMISS:          0  dACCESS:          0  dHIT:          0  dMISS:          0  itACCESS:          0  itHIT:          0  itMISS:          0  dtACCESS:          0  dtHIT:          0  dtMISS:          0
cpu0_DTLB WRITE        ACCESS:          0  HIT:          0  MISS:          0  iACCESS:          0  iHIT:          0  iMISS:          0  dACCESS:          0  dHIT:          0  dMISS:          0  itACCESS:          0  itHIT:          0  itMISS:          0  dtACCESS:          0  dtHIT:          0  dtMISS:          0
cpu0_DTLB TRANSLATION  ACCESS:          0  HIT:          0  MISS:          0  iACCESS:          0  iHIT:          0  iMISS:          0  dACCESS:          0  dHIT:          0  dMISS:          0  itACCESS:          0  itHIT:          0  itMISS:          0  dtACCESS:          0  dtHIT:          0  dtMISS:          0
cpu0_DTLB PREFETCH  REQUESTED:          0  ISSUED:          0  CROSSED:          0  USEFUL:          0  USELESS:          0
cpu0_DTLB AVERAGE iMISS LATENCY: 0 cycles
cpu0_DTLB AVERAGE dMISS LATENCY: 11.0158 cycles
cpu0_DTLB AVERAGE itMISS LATENCY: 0 cycles
cpu0_DTLB AVERAGE dtMISS LATENCY: 0 cycles
cpu0_DTLB PAGE CROSSINGS (TLB HIT):         0 
cpu0_DTLB PAGE CROSSINGS (TLB MISS):         0 
cpu0_DTLB AVERAGE MISS LATENCY: 11.0158 cycles
cpu0_STLB TOTAL       ACCESS:    1536801  HIT:    1363369  MISS:     173432  iACCESS:     385891  iHIT:     322909  iMISS:      62982  dACCESS:    1150910  dHIT:    1040460  dMISS:     110450  itACCESS:          0  itHIT:          0  itMISS:          0  dtACCESS:          0  dtHIT:          0  dtMISS:          0
cpu0_STLB LOAD         ACCESS:    1536801  HIT:    1363369  MISS:     173432  iACCESS:     385891  iHIT:     322909  iMISS:      62982  dACCESS:    1150910  dHIT:    1040460  dMISS:     110450  itACCESS:          0  itHIT:          0  itMISS:          0  dtACCESS:          0  dtHIT:          0  dtMISS:          0
cpu0_STLB RFO          ACCESS:          0  HIT:          0  MISS:          0  iACCESS:          0  iHIT:          0  iMISS:          0  dACCESS:          0  dHIT:          0  dMISS:          0  itACCESS:          0  itHIT:          0  itMISS:          0  dtACCESS:          0  dtHIT:          0  dtMISS:          0
cpu0_STLB PREFETCH     ACCESS:          0  HIT:          0  MISS:          0  iACCESS:          0  iHIT:          0  iMISS:          0  dACCESS:          0  dHIT:          0  dMISS:          0  itACCESS:          0  itHIT:          0  itMISS:          0  dtACCESS:          0  dtHIT:          0  dtMISS:          0
cpu0_STLB WRITE        ACCESS:          0  HIT:          0  MISS:          0  iACCESS:          0  iHIT:          0  iMISS:          0  dACCESS:          0  dHIT:          0  dMISS:          0  itACCESS:          0  itHIT:          0  itMISS:          0  dtACCESS:          0  dtHIT:          0  dtMISS:          0
cpu0_STLB TRANSLATION  ACCESS:          0  HIT:          0  MISS:          0  iACCESS:          0  iHIT:          0  iMISS:          0  dACCESS:          0  dHIT:          0  dMISS:          0  itACCESS:          0  itHIT:          0  itMISS:          0  dtACCESS:          0  dtHIT:          0  dtMISS:          0
cpu0_STLB PREFETCH  REQUESTED:          0  ISSUED:          0  CROSSED:          0  USEFUL:          0  USELESS:          0
cpu0_STLB AVERAGE iMISS LATENCY: 18.0294 cycles
cpu0_STLB AVERAGE dMISS LATENCY: 66.6076 cycles
cpu0_STLB AVERAGE itMISS LATENCY: 0 cycles
cpu0_STLB AVERAGE dtMISS LATENCY: 0 cycles
cpu0_STLB PAGE CROSSINGS (TLB HIT):         0 
cpu0_STLB PAGE CROSSINGS (TLB MISS):         0 
cpu0_STLB AVERAGE MISS LATENCY: 84.6369 cycles
cpu0_L1D TOTAL       ACCESS:   41420419  HIT:   37973544  MISS:    3446875  iACCESS:          0  iHIT:          0  iMISS:          0  dACCESS:   41187101  dHIT:   37952328  dMISS:    3234773  itACCESS:      68407  itHIT:       9718  itMISS:      58689  dtACCESS:     164911  dtHIT:      11498  dtMISS:     153413
cpu0_L1D LOAD         ACCESS:   18911928  HIT:   17441180  MISS:    1470748  iACCESS:          0  iHIT:          0  iMISS:          0  dACCESS:   18911928  dHIT:   17441180  dMISS:    1470748  itACCESS:          0  itHIT:          0  itMISS:          0  dtACCESS:          0  dtHIT:          0  dtMISS:          0
cpu0_L1D RFO          ACCESS:          0  HIT:          0  MISS:          0  iACCESS:          0  iHIT:          0  iMISS:          0  dACCESS:          0  dHIT:          0  dMISS:          0  itACCESS:          0  itHIT:          0  itMISS:          0  dtACCESS:          0  dtHIT:          0  dtMISS:          0
cpu0_L1D PREFETCH     ACCESS:   12105113  HIT:   10776817  MISS:    1328296  iACCESS:          0  iHIT:          0  iMISS:          0  dACCESS:   12105113  dHIT:   10776817  dMISS:    1328296  itACCESS:          0  itHIT:          0  itMISS:          0  dtACCESS:          0  dtHIT:          0  dtMISS:          0
cpu0_L1D WRITE        ACCESS:   10170060  HIT:    9734331  MISS:     435729  iACCESS:          0  iHIT:          0  iMISS:          0  dACCESS:   10170060  dHIT:    9734331  dMISS:     435729  itACCESS:          0  itHIT:          0  itMISS:          0  dtACCESS:          0  dtHIT:          0  dtMISS:          0
cpu0_L1D TRANSLATION  ACCESS:     233318  HIT:      21216  MISS:     212102  iACCESS:          0  iHIT:          0  iMISS:          0  dACCESS:          0  dHIT:          0  dMISS:          0  itACCESS:      68407  itHIT:       9718  itMISS:      58689  dtACCESS:     164911  dtHIT:      11498  dtMISS:     153413
cpu0_L1D PREFETCH  REQUESTED:   18911928  ISSUED:   16910850  CROSSED:          0  USEFUL:     303419  USELESS:     694094
cpu0_L1D AVERAGE iMISS LATENCY: 0 cycles
cpu0_L1D AVERAGE dMISS LATENCY: 34.5198 cycles
cpu0_L1D AVERAGE itMISS LATENCY: 0.743297 cycles
cpu0_L1D AVERAGE dtMISS LATENCY: 2.587 cycles
cpu0_L1D PAGE CROSSINGS (TLB HIT):         0 
cpu0_L1D PAGE CROSSINGS (TLB MISS):         0 
cpu0_L1D AVERAGE MISS LATENCY: 37.8501 cycles
cpu0_L2C TOTAL       ACCESS:    6890212  HIT:    1648490  MISS:    5241722  iACCESS:    3258197  iHIT:     830519  iMISS:    2427678  dACCESS:    3427305  dHIT:     699014  dMISS:    2728291  itACCESS:      58689  itHIT:      43165  itMISS:      15524  dtACCESS:     146021  dtHIT:      75792  dtMISS:      70229
cpu0_L2C LOAD         ACCESS:    1697201  HIT:     290215  MISS:    1406986  iACCESS:     777188  iHIT:     140696  iMISS:     636492  dACCESS:     920013  dHIT:     149519  dMISS:     770494  itACCESS:          0  itHIT:          0  itMISS:          0  dtACCESS:          0  dtHIT:          0  dtMISS:          0
cpu0_L2C RFO          ACCESS:     156447  HIT:      51983  MISS:     104464  iACCESS:          0  iHIT:          0  iMISS:          0  dACCESS:     156447  dHIT:      51983  dMISS:     104464  itACCESS:          0  itHIT:          0  itMISS:          0  dtACCESS:          0  dtHIT:          0  dtMISS:          0
cpu0_L2C PREFETCH     ACCESS:    4549248  HIT:    1049574  MISS:    3499674  iACCESS:    2481009  iHIT:     689823  iMISS:    1791186  dACCESS:    2068239  dHIT:     359751  dMISS:    1708488  itACCESS:          0  itHIT:          0  itMISS:          0  dtACCESS:          0  dtHIT:          0  dtMISS:          0
cpu0_L2C WRITE        ACCESS:     282606  HIT:     137761  MISS:     144845  iACCESS:          0  iHIT:          0  iMISS:          0  dACCESS:     282606  dHIT:     137761  dMISS:     144845  itACCESS:          0  itHIT:          0  itMISS:          0  dtACCESS:          0  dtHIT:          0  dtMISS:          0
cpu0_L2C TRANSLATION  ACCESS:     204710  HIT:     118957  MISS:      85753  iACCESS:          0  iHIT:          0  iMISS:          0  dACCESS:          0  dHIT:          0  dMISS:          0  itACCESS:      58689  itHIT:      43165  itMISS:      15524  dtACCESS:     146021  dtHIT:      75792  dtMISS:      70229
cpu0_L2C PREFETCH  REQUESTED:    1317427  ISSUED:    1317427  CROSSED:          0  USEFUL:     380203  USELESS:     368186
cpu0_L2C AVERAGE iMISS LATENCY: 16.4312 cycles
cpu0_L2C AVERAGE dMISS LATENCY: 26.5665 cycles
cpu0_L2C AVERAGE itMISS LATENCY: 0.384828 cycles
cpu0_L2C AVERAGE dtMISS LATENCY: 1.43547 cycles
cpu0_L2C PAGE CROSSINGS (TLB HIT):         0 
cpu0_L2C PAGE CROSSINGS (TLB MISS):         0 
cpu0_L2C AVERAGE MISS LATENCY: 44.818 cycles
LLC TOTAL       ACCESS:    5120372  HIT:    4221429  MISS:     898943  iACCESS:    2372551  iHIT:    2093630  iMISS:     278921  dACCESS:    2662068  dHIT:    2087045  dMISS:     575023  itACCESS:      15524  itHIT:       5594  itMISS:       9930  dtACCESS:      70229  dtHIT:      35160  dtMISS:      35069
LLC LOAD         ACCESS:    1405234  HIT:    1208570  MISS:     196664  iACCESS:     635182  iHIT:     578266  iMISS:      56916  dACCESS:     770052  dHIT:     630304  dMISS:     139748  itACCESS:          0  itHIT:          0  itMISS:          0  dtACCESS:          0  dtHIT:          0  dtMISS:          0
LLC RFO          ACCESS:     104462  HIT:      66797  MISS:      37665  iACCESS:          0  iHIT:          0  iMISS:          0  dACCESS:     104462  dHIT:      66797  dMISS:      37665  itACCESS:          0  itHIT:          0  itMISS:          0  dtACCESS:          0  dtHIT:          0  dtMISS:          0
LLC PREFETCH     ACCESS:    3389218  HIT:    2779342  MISS:     609876  iACCESS:    1737369  iHIT:    1515364  iMISS:     222005  dACCESS:    1651849  dHIT:    1263978  dMISS:     387871  itACCESS:          0  itHIT:          0  itMISS:          0  dtACCESS:          0  dtHIT:          0  dtMISS:          0
LLC WRITE        ACCESS:     135705  HIT:     125966  MISS:       9739  iACCESS:          0  iHIT:          0  iMISS:          0  dACCESS:     135705  dHIT:     125966  dMISS:       9739  itACCESS:          0  itHIT:          0  itMISS:          0  dtACCESS:          0  dtHIT:          0  dtMISS:          0
LLC TRANSLATION  ACCESS:      85753  HIT:      40754  MISS:      44999  iACCESS:          0  iHIT:          0  iMISS:          0  dACCESS:          0  dHIT:          0  dMISS:          0  itACCESS:      15524  itHIT:       5594  itMISS:       9930  dtACCESS:      70229  dtHIT:      35160  dtMISS:      35069
LLC PREFETCH  REQUESTED:          0  ISSUED:          0  CROSSED:          0  USEFUL:          0  USELESS:          0
LLC AVERAGE iMISS LATENCY: 44.8545 cycles
LLC AVERAGE dMISS LATENCY: 100.609 cycles
LLC AVERAGE itMISS LATENCY: 1.90544 cycles
LLC AVERAGE dtMISS LATENCY: 6.84831 cycles
LLC PAGE CROSSINGS (TLB HIT):         0 
LLC PAGE CROSSINGS (TLB MISS):         0 
LLC AVERAGE MISS LATENCY: 154.217 cycles

PageTableWalker TOTAL       ACCESS:      84958  
PageTableWalker AVERAGE LATENCY: 4.55927 cycles
PageTableWalker TOTAL LATENCY: 387346 cycles

DRAM Statistics
Channel 0
 RQ ROW_BUFFER_HIT:     254098
  ROW_BUFFER_MISS:     635026
 AVG DBUS CONGESTED CYCLE:     3.6171
 WQ ROW_BUFFER_HIT:      18532
  ROW_BUFFER_MISS:      22099  FULL:          0

