last_page:0x200000000000000
VMEM_RES_CAP:0x100000
PAGE_SIZE:4096
LOG2_PAGE_SIZE:12
LOG2_PAGE_TABLE_SIZE:9
page_table_levels:5
WARNING: physical memory size is smaller than virtual memory size
FDiP enabled with aggresivity 16

*** ChampSim Multicore Out-of-Order Simulator ***

Warmup Instructions: 50000000
Simulation Instructions: 100000000
Number of CPUs: 1
Small page size: 4096
Large page size: 2097152

CPU 0 Bimodal branch predictor
Basic BTB sets: 1024 ways: 8 indirect buffer size: 4096 RAS size: 64
Instruction page size distrubution: 0
Loading instruction page size distribution from /home/bsc/bsc018186/scratch/itp_asplos25_AE/dump/srv706_ap.pdst
Data page size distrubution: 0
Loading data page size distribution from /home/bsc/bsc018186/scratch/itp_asplos25_AE/dump/srv706_ap.pdst
cpu0_L2C IP-based stride prefetcher
cpu0_L2C is using PTP replacement policy:
	TLB_STRESS_THRESHOLD:0
	PTE_EVICTION_RATIO:0
cpu0_L1D next line prefetcher
CHiRPing...
cpu0_L1I next line prefetcher
Off-chip DRAM Size: 4 GiB Channels: 1 Width: 64-bit Data Rate: 3200 MT/s
Heartbeat CPU 0 instructions: 10000001 cycles: 2500244 heartbeat IPC: 3.99962 cumulative IPC: 3.99962 (Simulation time: 0 hr 0 min 39 sec) 
Heartbeat CPU 0 instructions: 20000000 cycles: 5000320 heartbeat IPC: 3.99988 cumulative IPC: 3.99975 (Simulation time: 0 hr 1 min 19 sec) 
Heartbeat CPU 0 instructions: 30000003 cycles: 7500413 heartbeat IPC: 3.99986 cumulative IPC: 3.99979 (Simulation time: 0 hr 2 min 0 sec) 
Heartbeat CPU 0 instructions: 40000000 cycles: 10000446 heartbeat IPC: 3.99995 cumulative IPC: 3.99983 (Simulation time: 0 hr 2 min 41 sec) 
Heartbeat CPU 0 instructions: 50000002 cycles: 12500562 heartbeat IPC: 3.99982 cumulative IPC: 3.99983 (Simulation time: 0 hr 3 min 22 sec) 
Warmup finished CPU 0 instructions: 50000002 cycles: 12500563 cumulative IPC: 3.99983 (Simulation time: 0 hr 3 min 22 sec) 

Warmup complete CPU 0 instructions: 50000002 cycles: 12500563 (Simulation time: 0 hr 3 min 22 sec) 

Heartbeat CPU 0 instructions: 60000003 cycles: 32212111 heartbeat IPC: 0.507317 cumulative IPC: 0.507317 (Simulation time: 0 hr 4 min 33 sec) 
Heartbeat CPU 0 instructions: 70000004 cycles: 52783179 heartbeat IPC: 0.48612 cumulative IPC: 0.496493 (Simulation time: 0 hr 5 min 45 sec) 
Heartbeat CPU 0 instructions: 80000000 cycles: 72806703 heartbeat IPC: 0.499413 cumulative IPC: 0.497462 (Simulation time: 0 hr 6 min 56 sec) 
Heartbeat CPU 0 instructions: 90000002 cycles: 81642337 heartbeat IPC: 1.13179 cumulative IPC: 0.578522 (Simulation time: 0 hr 7 min 56 sec) 
Heartbeat CPU 0 instructions: 100000000 cycles: 99128507 heartbeat IPC: 0.571881 cumulative IPC: 0.577181 (Simulation time: 0 hr 9 min 4 sec) 
*** Reached end of trace: /gpfs/projects/bsc18/MN4/bsc18/romol/ChampSim/traces/qualcomm_srv/srv706_ap.champsimtrace.xz
Heartbeat CPU 0 instructions: 110000002 cycles: 119692011 heartbeat IPC: 0.486299 cumulative IPC: 0.559747 (Simulation time: 0 hr 10 min 16 sec) 
Heartbeat CPU 0 instructions: 120000001 cycles: 139990137 heartbeat IPC: 0.492657 cumulative IPC: 0.549065 (Simulation time: 0 hr 11 min 27 sec) 
Heartbeat CPU 0 instructions: 130000003 cycles: 160460639 heartbeat IPC: 0.488508 cumulative IPC: 0.540687 (Simulation time: 0 hr 12 min 37 sec) 
Heartbeat CPU 0 instructions: 140000004 cycles: 181911048 heartbeat IPC: 0.466192 cumulative IPC: 0.531255 (Simulation time: 0 hr 13 min 48 sec) 
Heartbeat CPU 0 instructions: 150000000 cycles: 202894920 heartbeat IPC: 0.476557 cumulative IPC: 0.525226 (Simulation time: 0 hr 14 min 56 sec) 
Simulation finished CPU 0 instructions: 100000000 cycles: 190394359 cumulative IPC: 0.525226 (Simulation time: 0 hr 14 min 56 sec) 

Simulation complete CPU 0 instructions: 100000000 cycles: 190394359 (Simulation time: 0 hr 14 min 56 sec) 


ChampSim completed all CPUs

Saving instructions large page distribution to /home/bsc/bsc018186/scratch/itp_asplos25_AE/dump/srv706_ap.pdst...
Saving data large page distribution to /home/bsc/bsc018186/scratch/itp_asplos25_AE/dump/srv706_ap.pdst...
=== Simulation ===
CPU 0 runs /gpfs/projects/bsc18/MN4/bsc18/romol/ChampSim/traces/qualcomm_srv/srv706_ap.champsimtrace.xz

Region of Interest Statistics

CPU 0 cumulative IPC: 0.525226 instructions: 100000000 cycles: 190394359
CPU 0 Branch Prediction Accuracy: 82.8794% MPKI: 33.1204 Average ROB Occupancy at Mispredict: 12.6487
Branch type MPKI
BRANCH_DIRECT_JUMP: 1.18695
BRANCH_INDIRECT: 16.8781
BRANCH_CONDITIONAL: 10.5778
BRANCH_DIRECT_CALL: 2.23178
BRANCH_INDIRECT_CALL: 0.686421
BRANCH_RETURN: 1.55946

Instructions large pages: 0
Instructions small pages: 6481
Large page distribution for instructions: 0%

Data large pages: 0
Data small pages: 5344
Large page distribution for data: 0%

cpu0_L1I TOTAL       ACCESS:   34714482  HIT:   27600955  MISS:    7113527  iACCESS:   34714482  iHIT:   27600955  iMISS:    7113527  dACCESS:          0  dHIT:          0  dMISS:          0  itACCESS:          0  itHIT:          0  itMISS:          0  dtACCESS:          0  dtHIT:          0  dtMISS:          0
cpu0_L1I LOAD         ACCESS:    9228404  HIT:    7280874  MISS:    1947530  iACCESS:    9228404  iHIT:    7280874  iMISS:    1947530  dACCESS:          0  dHIT:          0  dMISS:          0  itACCESS:          0  itHIT:          0  itMISS:          0  dtACCESS:          0  dtHIT:          0  dtMISS:          0
cpu0_L1I RFO          ACCESS:          0  HIT:          0  MISS:          0  iACCESS:          0  iHIT:          0  iMISS:          0  dACCESS:          0  dHIT:          0  dMISS:          0  itACCESS:          0  itHIT:          0  itMISS:          0  dtACCESS:          0  dtHIT:          0  dtMISS:          0
cpu0_L1I PREFETCH     ACCESS:   25486078  HIT:   20320081  MISS:    5165997  iACCESS:   25486078  iHIT:   20320081  iMISS:    5165997  dACCESS:          0  dHIT:          0  dMISS:          0  itACCESS:          0  itHIT:          0  itMISS:          0  dtACCESS:          0  dtHIT:          0  dtMISS:          0
cpu0_L1I WRITE        ACCESS:          0  HIT:          0  MISS:          0  iACCESS:          0  iHIT:          0  iMISS:          0  dACCESS:          0  dHIT:          0  dMISS:          0  itACCESS:          0  itHIT:          0  itMISS:          0  dtACCESS:          0  dtHIT:          0  dtMISS:          0
cpu0_L1I TRANSLATION  ACCESS:          0  HIT:          0  MISS:          0  iACCESS:          0  iHIT:          0  iMISS:          0  dACCESS:          0  dHIT:          0  dMISS:          0  itACCESS:          0  itHIT:          0  itMISS:          0  dtACCESS:          0  dtHIT:          0  dtMISS:          0
cpu0_L1I PREFETCH  REQUESTED:   27580615  ISSUED:   27580509  CROSSED:          0  USEFUL:    1762073  USELESS:     581800
cpu0_L1I AVERAGE iMISS LATENCY: 20.0203 cycles
cpu0_L1I AVERAGE dMISS LATENCY: 0 cycles
cpu0_L1I AVERAGE itMISS LATENCY: 0 cycles
cpu0_L1I AVERAGE dtMISS LATENCY: 0 cycles
cpu0_L1I PAGE CROSSINGS (TLB HIT):         0 
cpu0_L1I PAGE CROSSINGS (TLB MISS):         0 
cpu0_L1I AVERAGE MISS LATENCY: 20.0203 cycles
cpu0_ITLB TOTAL       ACCESS:   29308596  HIT:   27579447  MISS:    1729149  iACCESS:   29308596  iHIT:   27579447  iMISS:    1729149  dACCESS:          0  dHIT:          0  dMISS:          0  itACCESS:          0  itHIT:          0  itMISS:          0  dtACCESS:          0  dtHIT:          0  dtMISS:          0
cpu0_ITLB LOAD         ACCESS:   29308596  HIT:   27579447  MISS:    1729149  iACCESS:   29308596  iHIT:   27579447  iMISS:    1729149  dACCESS:          0  dHIT:          0  dMISS:          0  itACCESS:          0  itHIT:          0  itMISS:          0  dtACCESS:          0  dtHIT:          0  dtMISS:          0
cpu0_ITLB RFO          ACCESS:          0  HIT:          0  MISS:          0  iACCESS:          0  iHIT:          0  iMISS:          0  dACCESS:          0  dHIT:          0  dMISS:          0  itACCESS:          0  itHIT:          0  itMISS:          0  dtACCESS:          0  dtHIT:          0  dtMISS:          0
cpu0_ITLB PREFETCH     ACCESS:          0  HIT:          0  MISS:          0  iACCESS:          0  iHIT:          0  iMISS:          0  dACCESS:          0  dHIT:          0  dMISS:          0  itACCESS:          0  itHIT:          0  itMISS:          0  dtACCESS:          0  dtHIT:          0  dtMISS:          0
cpu0_ITLB WRITE        ACCESS:          0  HIT:          0  MISS:          0  iACCESS:          0  iHIT:          0  iMISS:          0  dACCESS:          0  dHIT:          0  dMISS:          0  itACCESS:          0  itHIT:          0  itMISS:          0  dtACCESS:          0  dtHIT:          0  dtMISS:          0
cpu0_ITLB TRANSLATION  ACCESS:          0  HIT:          0  MISS:          0  iACCESS:          0  iHIT:          0  iMISS:          0  dACCESS:          0  dHIT:          0  dMISS:          0  itACCESS:          0  itHIT:          0  itMISS:          0  dtACCESS:          0  dtHIT:          0  dtMISS:          0
cpu0_ITLB PREFETCH  REQUESTED:          0  ISSUED:          0  CROSSED:          0  USEFUL:     294224  USELESS:      54807
cpu0_ITLB AVERAGE iMISS LATENCY: 6.81866 cycles
cpu0_ITLB AVERAGE dMISS LATENCY: 0 cycles
cpu0_ITLB AVERAGE itMISS LATENCY: 0 cycles
cpu0_ITLB AVERAGE dtMISS LATENCY: 0 cycles
cpu0_ITLB PAGE CROSSINGS (TLB HIT):         0 
cpu0_ITLB PAGE CROSSINGS (TLB MISS):         0 
cpu0_ITLB AVERAGE MISS LATENCY: 6.81866 cycles
cpu0_DTLB TOTAL       ACCESS:   29839543  HIT:   25458067  MISS:    4381476  iACCESS:          0  iHIT:          0  iMISS:          0  dACCESS:   29839543  dHIT:   25458067  dMISS:    4381476  itACCESS:          0  itHIT:          0  itMISS:          0  dtACCESS:          0  dtHIT:          0  dtMISS:          0
cpu0_DTLB LOAD         ACCESS:   29839543  HIT:   25458067  MISS:    4381476  iACCESS:          0  iHIT:          0  iMISS:          0  dACCESS:   29839543  dHIT:   25458067  dMISS:    4381476  itACCESS:          0  itHIT:          0  itMISS:          0  dtACCESS:          0  dtHIT:          0  dtMISS:          0
cpu0_DTLB RFO          ACCESS:          0  HIT:          0  MISS:          0  iACCESS:          0  iHIT:          0  iMISS:          0  dACCESS:          0  dHIT:          0  dMISS:          0  itACCESS:          0  itHIT:          0  itMISS:          0  dtACCESS:          0  dtHIT:          0  dtMISS:          0
cpu0_DTLB PREFETCH     ACCESS:          0  HIT:          0  MISS:          0  iACCESS:          0  iHIT:          0  iMISS:          0  dACCESS:          0  dHIT:          0  dMISS:          0  itACCESS:          0  itHIT:          0  itMISS:          0  dtACCESS:          0  dtHIT:          0  dtMISS:          0
cpu0_DTLB WRITE        ACCESS:          0  HIT:          0  MISS:          0  iACCESS:          0  iHIT:          0  iMISS:          0  dACCESS:          0  dHIT:          0  dMISS:          0  itACCESS:          0  itHIT:          0  itMISS:          0  dtACCESS:          0  dtHIT:          0  dtMISS:          0
cpu0_DTLB TRANSLATION  ACCESS:          0  HIT:          0  MISS:          0  iACCESS:          0  iHIT:          0  iMISS:          0  dACCESS:          0  dHIT:          0  dMISS:          0  itACCESS:          0  itHIT:          0  itMISS:          0  dtACCESS:          0  dtHIT:          0  dtMISS:          0
cpu0_DTLB PREFETCH  REQUESTED:          0  ISSUED:          0  CROSSED:          0  USEFUL:          0  USELESS:          0
cpu0_DTLB AVERAGE iMISS LATENCY: 0 cycles
cpu0_DTLB AVERAGE dMISS LATENCY: 9.51327 cycles
cpu0_DTLB AVERAGE itMISS LATENCY: 0 cycles
cpu0_DTLB AVERAGE dtMISS LATENCY: 0 cycles
cpu0_DTLB PAGE CROSSINGS (TLB HIT):         0 
cpu0_DTLB PAGE CROSSINGS (TLB MISS):         0 
cpu0_DTLB AVERAGE MISS LATENCY: 9.51327 cycles
cpu0_STLB TOTAL       ACCESS:    2675729  HIT:    2461296  MISS:     214433  iACCESS:     349032  iHIT:     267854  iMISS:      81178  dACCESS:    2326697  dHIT:    2193442  dMISS:     133255  itACCESS:          0  itHIT:          0  itMISS:          0  dtACCESS:          0  dtHIT:          0  dtMISS:          0
cpu0_STLB LOAD         ACCESS:    2675729  HIT:    2461296  MISS:     214433  iACCESS:     349032  iHIT:     267854  iMISS:      81178  dACCESS:    2326697  dHIT:    2193442  dMISS:     133255  itACCESS:          0  itHIT:          0  itMISS:          0  dtACCESS:          0  dtHIT:          0  dtMISS:          0
cpu0_STLB RFO          ACCESS:          0  HIT:          0  MISS:          0  iACCESS:          0  iHIT:          0  iMISS:          0  dACCESS:          0  dHIT:          0  dMISS:          0  itACCESS:          0  itHIT:          0  itMISS:          0  dtACCESS:          0  dtHIT:          0  dtMISS:          0
cpu0_STLB PREFETCH     ACCESS:          0  HIT:          0  MISS:          0  iACCESS:          0  iHIT:          0  iMISS:          0  dACCESS:          0  dHIT:          0  dMISS:          0  itACCESS:          0  itHIT:          0  itMISS:          0  dtACCESS:          0  dtHIT:          0  dtMISS:          0
cpu0_STLB WRITE        ACCESS:          0  HIT:          0  MISS:          0  iACCESS:          0  iHIT:          0  iMISS:          0  dACCESS:          0  dHIT:          0  dMISS:          0  itACCESS:          0  itHIT:          0  itMISS:          0  dtACCESS:          0  dtHIT:          0  dtMISS:          0
cpu0_STLB TRANSLATION  ACCESS:          0  HIT:          0  MISS:          0  iACCESS:          0  iHIT:          0  iMISS:          0  dACCESS:          0  dHIT:          0  dMISS:          0  itACCESS:          0  itHIT:          0  itMISS:          0  dtACCESS:          0  dtHIT:          0  dtMISS:          0
cpu0_STLB PREFETCH  REQUESTED:          0  ISSUED:          0  CROSSED:          0  USEFUL:          0  USELESS:          0
cpu0_STLB AVERAGE iMISS LATENCY: 41.9776 cycles
cpu0_STLB AVERAGE dMISS LATENCY: 106.658 cycles
cpu0_STLB AVERAGE itMISS LATENCY: 0 cycles
cpu0_STLB AVERAGE dtMISS LATENCY: 0 cycles
cpu0_STLB PAGE CROSSINGS (TLB HIT):         0 
cpu0_STLB PAGE CROSSINGS (TLB MISS):         0 
cpu0_STLB AVERAGE MISS LATENCY: 148.636 cycles
cpu0_L1D TOTAL       ACCESS:   45812065  HIT:   38862175  MISS:    6949890  iACCESS:          0  iHIT:          0  iMISS:          0  dACCESS:   45539943  dHIT:   38836928  dMISS:    6703015  itACCESS:      86918  itHIT:      14044  itMISS:      72874  dtACCESS:     185204  dtHIT:      11203  dtMISS:     174001
cpu0_L1D LOAD         ACCESS:   22074735  HIT:   18133461  MISS:    3941274  iACCESS:          0  iHIT:          0  iMISS:          0  dACCESS:   22074735  dHIT:   18133461  dMISS:    3941274  itACCESS:          0  itHIT:          0  itMISS:          0  dtACCESS:          0  dtHIT:          0  dtMISS:          0
cpu0_L1D RFO          ACCESS:          0  HIT:          0  MISS:          0  iACCESS:          0  iHIT:          0  iMISS:          0  dACCESS:          0  dHIT:          0  dMISS:          0  itACCESS:          0  itHIT:          0  itMISS:          0  dtACCESS:          0  dtHIT:          0  dtMISS:          0
cpu0_L1D PREFETCH     ACCESS:   13657273  HIT:   11357764  MISS:    2299509  iACCESS:          0  iHIT:          0  iMISS:          0  dACCESS:   13657273  dHIT:   11357764  dMISS:    2299509  itACCESS:          0  itHIT:          0  itMISS:          0  dtACCESS:          0  dtHIT:          0  dtMISS:          0
cpu0_L1D WRITE        ACCESS:    9807935  HIT:    9345703  MISS:     462232  iACCESS:          0  iHIT:          0  iMISS:          0  dACCESS:    9807935  dHIT:    9345703  dMISS:     462232  itACCESS:          0  itHIT:          0  itMISS:          0  dtACCESS:          0  dtHIT:          0  dtMISS:          0
cpu0_L1D TRANSLATION  ACCESS:     272122  HIT:      25247  MISS:     246875  iACCESS:          0  iHIT:          0  iMISS:          0  dACCESS:          0  dHIT:          0  dMISS:          0  itACCESS:      86918  itHIT:      14044  itMISS:      72874  dtACCESS:     185204  dtHIT:      11203  dtMISS:     174001
cpu0_L1D PREFETCH  REQUESTED:   22074735  ISSUED:   17552704  CROSSED:          0  USEFUL:     277197  USELESS:     759357
cpu0_L1D AVERAGE iMISS LATENCY: 0 cycles
cpu0_L1D AVERAGE dMISS LATENCY: 27.3987 cycles
cpu0_L1D AVERAGE itMISS LATENCY: 1.19179 cycles
cpu0_L1D AVERAGE dtMISS LATENCY: 3.0014 cycles
cpu0_L1D PAGE CROSSINGS (TLB HIT):         0 
cpu0_L1D PAGE CROSSINGS (TLB MISS):         0 
cpu0_L1D AVERAGE MISS LATENCY: 31.5919 cycles
cpu0_L2C TOTAL       ACCESS:    8325693  HIT:    3744243  MISS:    4581450  iACCESS:    2990013  iHIT:    1423846  iMISS:    1566167  dACCESS:    5096506  dHIT:    2248530  dMISS:    2847976  itACCESS:      72874  itHIT:      23554  itMISS:      49320  dtACCESS:     166300  dtHIT:      48313  dtMISS:     117987
cpu0_L2C LOAD         ACCESS:    3197227  HIT:    1640534  MISS:    1556693  iACCESS:     679593  iHIT:     319535  iMISS:     360058  dACCESS:    2517634  dHIT:    1320999  dMISS:    1196635  itACCESS:          0  itHIT:          0  itMISS:          0  dtACCESS:          0  dtHIT:          0  dtMISS:          0
cpu0_L2C RFO          ACCESS:     167728  HIT:      59151  MISS:     108577  iACCESS:          0  iHIT:          0  iMISS:          0  dACCESS:     167728  dHIT:      59151  dMISS:     108577  itACCESS:          0  itHIT:          0  itMISS:          0  dtACCESS:          0  dtHIT:          0  dtMISS:          0
cpu0_L2C PREFETCH     ACCESS:    4475721  HIT:    1792481  MISS:    2683240  iACCESS:    2310420  iHIT:    1104311  iMISS:    1206109  dACCESS:    2165301  dHIT:     688170  dMISS:    1477131  itACCESS:          0  itHIT:          0  itMISS:          0  dtACCESS:          0  dtHIT:          0  dtMISS:          0
cpu0_L2C WRITE        ACCESS:     245843  HIT:     180210  MISS:      65633  iACCESS:          0  iHIT:          0  iMISS:          0  dACCESS:     245843  dHIT:     180210  dMISS:      65633  itACCESS:          0  itHIT:          0  itMISS:          0  dtACCESS:          0  dtHIT:          0  dtMISS:          0
cpu0_L2C TRANSLATION  ACCESS:     239174  HIT:      71867  MISS:     167307  iACCESS:          0  iHIT:          0  iMISS:          0  dACCESS:          0  dHIT:          0  dMISS:          0  itACCESS:      72874  itHIT:      23554  itMISS:      49320  dtACCESS:     166300  dtHIT:      48313  dtMISS:     117987
cpu0_L2C PREFETCH  REQUESTED:    1358683  ISSUED:    1358517  CROSSED:          0  USEFUL:     339839  USELESS:     313035
cpu0_L2C AVERAGE iMISS LATENCY: 25.3502 cycles
cpu0_L2C AVERAGE dMISS LATENCY: 46.9788 cycles
cpu0_L2C AVERAGE itMISS LATENCY: 1.65346 cycles
cpu0_L2C AVERAGE dtMISS LATENCY: 4.19878 cycles
cpu0_L2C PAGE CROSSINGS (TLB HIT):         0 
cpu0_L2C PAGE CROSSINGS (TLB MISS):         0 
cpu0_L2C AVERAGE MISS LATENCY: 78.1811 cycles
LLC TOTAL       ACCESS:    4507876  HIT:    2810837  MISS:    1697039  iACCESS:    1493454  iHIT:     902653  iMISS:     590801  dACCESS:    2847115  dHIT:    1868921  dMISS:     978194  itACCESS:      49320  itHIT:      11626  itMISS:      37694  dtACCESS:     117987  dtHIT:      27637  dtMISS:      90350
LLC LOAD         ACCESS:    1550812  HIT:    1178922  MISS:     371890  iACCESS:     358797  iHIT:     235546  iMISS:     123251  dACCESS:    1192015  dHIT:     943376  dMISS:     248639  itACCESS:          0  itHIT:          0  itMISS:          0  dtACCESS:          0  dtHIT:          0  dtMISS:          0
LLC RFO          ACCESS:     108547  HIT:      49521  MISS:      59026  iACCESS:          0  iHIT:          0  iMISS:          0  dACCESS:     108547  dHIT:      49521  dMISS:      59026  itACCESS:          0  itHIT:          0  itMISS:          0  dtACCESS:          0  dtHIT:          0  dtMISS:          0
LLC PREFETCH     ACCESS:    2521187  HIT:    1388230  MISS:    1132957  iACCESS:    1134657  iHIT:     667107  iMISS:     467550  dACCESS:    1386530  dHIT:     721123  dMISS:     665407  itACCESS:          0  itHIT:          0  itMISS:          0  dtACCESS:          0  dtHIT:          0  dtMISS:          0
LLC WRITE        ACCESS:     160023  HIT:     154901  MISS:       5122  iACCESS:          0  iHIT:          0  iMISS:          0  dACCESS:     160023  dHIT:     154901  dMISS:       5122  itACCESS:          0  itHIT:          0  itMISS:          0  dtACCESS:          0  dtHIT:          0  dtMISS:          0
LLC TRANSLATION  ACCESS:     167307  HIT:      39263  MISS:     128044  iACCESS:          0  iHIT:          0  iMISS:          0  dACCESS:          0  dHIT:          0  dMISS:          0  itACCESS:      49320  itHIT:      11626  itMISS:      37694  dtACCESS:     117987  dtHIT:      27637  dtMISS:      90350
LLC PREFETCH  REQUESTED:          0  ISSUED:          0  CROSSED:          0  USEFUL:          0  USELESS:          0
LLC AVERAGE iMISS LATENCY: 51.3018 cycles
LLC AVERAGE dMISS LATENCY: 97.0837 cycles
LLC AVERAGE itMISS LATENCY: 3.89112 cycles
LLC AVERAGE dtMISS LATENCY: 9.96735 cycles
LLC PAGE CROSSINGS (TLB HIT):         0 
LLC PAGE CROSSINGS (TLB MISS):         0 
LLC AVERAGE MISS LATENCY: 162.244 cycles

PageTableWalker TOTAL       ACCESS:     119272  
PageTableWalker AVERAGE LATENCY: 3.93544 cycles
PageTableWalker TOTAL LATENCY: 469387 cycles

DRAM Statistics
Channel 0
 RQ ROW_BUFFER_HIT:     463694
  ROW_BUFFER_MISS:    1215748
 AVG DBUS CONGESTED CYCLE:    3.63112
 WQ ROW_BUFFER_HIT:      37132
  ROW_BUFFER_MISS:      28113  FULL:          0

