last_page:0x200000000000000
VMEM_RES_CAP:0x100000
PAGE_SIZE:4096
LOG2_PAGE_SIZE:12
LOG2_PAGE_TABLE_SIZE:9
page_table_levels:5
WARNING: physical memory size is smaller than virtual memory size
FDiP enabled with aggresivity 16

*** ChampSim Multicore Out-of-Order Simulator ***

Warmup Instructions: 50000000
Simulation Instructions: 100000000
Number of CPUs: 1
Small page size: 4096
Large page size: 2097152

CPU 0 Bimodal branch predictor
Basic BTB sets: 1024 ways: 8 indirect buffer size: 4096 RAS size: 64
Instruction page size distrubution: 0
Loading instruction page size distribution from /home/bsc/bsc018186/scratch/itp_asplos25_AE/dump/srv73_ap.pdst
Data page size distrubution: 0
Loading data page size distribution from /home/bsc/bsc018186/scratch/itp_asplos25_AE/dump/srv73_ap.pdst
cpu0_L2C IP-based stride prefetcher
cpu0_L2C is using PTP replacement policy:
	TLB_STRESS_THRESHOLD:0
	PTE_EVICTION_RATIO:0
cpu0_L1D next line prefetcher
cpu0_L1I next line prefetcher
Off-chip DRAM Size: 4 GiB Channels: 1 Width: 64-bit Data Rate: 3200 MT/s
Heartbeat CPU 0 instructions: 10000002 cycles: 2500171 heartbeat IPC: 3.99973 cumulative IPC: 3.99973 (Simulation time: 0 hr 0 min 39 sec) 
Heartbeat CPU 0 instructions: 20000003 cycles: 5000283 heartbeat IPC: 3.99983 cumulative IPC: 3.99978 (Simulation time: 0 hr 1 min 19 sec) 
Heartbeat CPU 0 instructions: 30000000 cycles: 7507905 heartbeat IPC: 3.98785 cumulative IPC: 3.99579 (Simulation time: 0 hr 1 min 59 sec) 
Heartbeat CPU 0 instructions: 40000002 cycles: 10015196 heartbeat IPC: 3.98837 cumulative IPC: 3.99394 (Simulation time: 0 hr 2 min 36 sec) 
Heartbeat CPU 0 instructions: 50000002 cycles: 12517918 heartbeat IPC: 3.99565 cumulative IPC: 3.99428 (Simulation time: 0 hr 3 min 16 sec) 
Warmup finished CPU 0 instructions: 50000002 cycles: 12517919 cumulative IPC: 3.99428 (Simulation time: 0 hr 3 min 16 sec) 

Warmup complete CPU 0 instructions: 50000002 cycles: 12517919 (Simulation time: 0 hr 3 min 16 sec) 

Heartbeat CPU 0 instructions: 60000000 cycles: 33616992 heartbeat IPC: 0.473955 cumulative IPC: 0.473955 (Simulation time: 0 hr 4 min 30 sec) 
Heartbeat CPU 0 instructions: 70000002 cycles: 42799544 heartbeat IPC: 1.08903 cumulative IPC: 0.660467 (Simulation time: 0 hr 5 min 29 sec) 
Heartbeat CPU 0 instructions: 80000004 cycles: 65199241 heartbeat IPC: 0.446435 cumulative IPC: 0.569462 (Simulation time: 0 hr 6 min 44 sec) 
Heartbeat CPU 0 instructions: 90000002 cycles: 87333824 heartbeat IPC: 0.451782 cumulative IPC: 0.534646 (Simulation time: 0 hr 7 min 58 sec) 
Heartbeat CPU 0 instructions: 100000000 cycles: 109944361 heartbeat IPC: 0.442272 cumulative IPC: 0.513208 (Simulation time: 0 hr 9 min 13 sec) 
*** Reached end of trace: /gpfs/projects/bsc18/MN4/bsc18/romol/ChampSim/traces/qualcomm_srv/srv73_ap.champsimtrace.xz
Heartbeat CPU 0 instructions: 110000001 cycles: 131910985 heartbeat IPC: 0.455237 cumulative IPC: 0.502542 (Simulation time: 0 hr 10 min 27 sec) 
Heartbeat CPU 0 instructions: 120000002 cycles: 155153757 heartbeat IPC: 0.430242 cumulative IPC: 0.490761 (Simulation time: 0 hr 11 min 42 sec) 
Heartbeat CPU 0 instructions: 130000000 cycles: 171341996 heartbeat IPC: 0.617733 cumulative IPC: 0.503702 (Simulation time: 0 hr 12 min 48 sec) 
Heartbeat CPU 0 instructions: 140000000 cycles: 180612879 heartbeat IPC: 1.07865 cumulative IPC: 0.535412 (Simulation time: 0 hr 13 min 40 sec) 
Heartbeat CPU 0 instructions: 150000004 cycles: 201968043 heartbeat IPC: 0.468271 cumulative IPC: 0.527844 (Simulation time: 0 hr 14 min 51 sec) 
Simulation finished CPU 0 instructions: 100000002 cycles: 189450125 cumulative IPC: 0.527844 (Simulation time: 0 hr 14 min 51 sec) 

Simulation complete CPU 0 instructions: 100000002 cycles: 189450125 (Simulation time: 0 hr 14 min 51 sec) 


ChampSim completed all CPUs

Saving instructions large page distribution to /home/bsc/bsc018186/scratch/itp_asplos25_AE/dump/srv73_ap.pdst...
Saving data large page distribution to /home/bsc/bsc018186/scratch/itp_asplos25_AE/dump/srv73_ap.pdst...
=== Simulation ===
CPU 0 runs /gpfs/projects/bsc18/MN4/bsc18/romol/ChampSim/traces/qualcomm_srv/srv73_ap.champsimtrace.xz

Region of Interest Statistics

CPU 0 cumulative IPC: 0.527844 instructions: 100000002 cycles: 189450125
CPU 0 Branch Prediction Accuracy: 82.7501% MPKI: 33.8556 Average ROB Occupancy at Mispredict: 11.4693
Branch type MPKI
BRANCH_DIRECT_JUMP: 1.01076
BRANCH_INDIRECT: 16.971
BRANCH_CONDITIONAL: 11.2404
BRANCH_DIRECT_CALL: 1.82837
BRANCH_INDIRECT_CALL: 1.46524
BRANCH_RETURN: 1.33985

Instructions large pages: 0
Instructions small pages: 1671
Large page distribution for instructions: 0%

Data large pages: 0
Data small pages: 5667
Large page distribution for data: 0%

cpu0_L1I TOTAL       ACCESS:   32426007  HIT:   26002767  MISS:    6423240  iACCESS:   32426007  iHIT:   26002767  iMISS:    6423240  dACCESS:          0  dHIT:          0  dMISS:          0  itACCESS:          0  itHIT:          0  itMISS:          0  dtACCESS:          0  dtHIT:          0  dtMISS:          0
cpu0_L1I LOAD         ACCESS:    7960071  HIT:    6163676  MISS:    1796395  iACCESS:    7960071  iHIT:    6163676  iMISS:    1796395  dACCESS:          0  dHIT:          0  dMISS:          0  itACCESS:          0  itHIT:          0  itMISS:          0  dtACCESS:          0  dtHIT:          0  dtMISS:          0
cpu0_L1I RFO          ACCESS:          0  HIT:          0  MISS:          0  iACCESS:          0  iHIT:          0  iMISS:          0  dACCESS:          0  dHIT:          0  dMISS:          0  itACCESS:          0  itHIT:          0  itMISS:          0  dtACCESS:          0  dtHIT:          0  dtMISS:          0
cpu0_L1I PREFETCH     ACCESS:   24465936  HIT:   19839091  MISS:    4626845  iACCESS:   24465936  iHIT:   19839091  iMISS:    4626845  dACCESS:          0  dHIT:          0  dMISS:          0  itACCESS:          0  itHIT:          0  itMISS:          0  dtACCESS:          0  dtHIT:          0  dtMISS:          0
cpu0_L1I WRITE        ACCESS:          0  HIT:          0  MISS:          0  iACCESS:          0  iHIT:          0  iMISS:          0  dACCESS:          0  dHIT:          0  dMISS:          0  itACCESS:          0  itHIT:          0  itMISS:          0  dtACCESS:          0  dtHIT:          0  dtMISS:          0
cpu0_L1I TRANSLATION  ACCESS:          0  HIT:          0  MISS:          0  iACCESS:          0  iHIT:          0  iMISS:          0  dACCESS:          0  dHIT:          0  dMISS:          0  itACCESS:          0  itHIT:          0  itMISS:          0  dtACCESS:          0  dtHIT:          0  dtMISS:          0
cpu0_L1I PREFETCH  REQUESTED:   26182794  ISSUED:   26182786  CROSSED:          0  USEFUL:    1551978  USELESS:     567973
cpu0_L1I AVERAGE iMISS LATENCY: 20.7266 cycles
cpu0_L1I AVERAGE dMISS LATENCY: 0 cycles
cpu0_L1I AVERAGE itMISS LATENCY: 0 cycles
cpu0_L1I AVERAGE dtMISS LATENCY: 0 cycles
cpu0_L1I PAGE CROSSINGS (TLB HIT):         0 
cpu0_L1I PAGE CROSSINGS (TLB MISS):         0 
cpu0_L1I AVERAGE MISS LATENCY: 20.7266 cycles
cpu0_ITLB TOTAL       ACCESS:   27718675  HIT:   26138965  MISS:    1579710  iACCESS:   27718675  iHIT:   26138965  iMISS:    1579710  dACCESS:          0  dHIT:          0  dMISS:          0  itACCESS:          0  itHIT:          0  itMISS:          0  dtACCESS:          0  dtHIT:          0  dtMISS:          0
cpu0_ITLB LOAD         ACCESS:   27718675  HIT:   26138965  MISS:    1579710  iACCESS:   27718675  iHIT:   26138965  iMISS:    1579710  dACCESS:          0  dHIT:          0  dMISS:          0  itACCESS:          0  itHIT:          0  itMISS:          0  dtACCESS:          0  dtHIT:          0  dtMISS:          0
cpu0_ITLB RFO          ACCESS:          0  HIT:          0  MISS:          0  iACCESS:          0  iHIT:          0  iMISS:          0  dACCESS:          0  dHIT:          0  dMISS:          0  itACCESS:          0  itHIT:          0  itMISS:          0  dtACCESS:          0  dtHIT:          0  dtMISS:          0
cpu0_ITLB PREFETCH     ACCESS:          0  HIT:          0  MISS:          0  iACCESS:          0  iHIT:          0  iMISS:          0  dACCESS:          0  dHIT:          0  dMISS:          0  itACCESS:          0  itHIT:          0  itMISS:          0  dtACCESS:          0  dtHIT:          0  dtMISS:          0
cpu0_ITLB WRITE        ACCESS:          0  HIT:          0  MISS:          0  iACCESS:          0  iHIT:          0  iMISS:          0  dACCESS:          0  dHIT:          0  dMISS:          0  itACCESS:          0  itHIT:          0  itMISS:          0  dtACCESS:          0  dtHIT:          0  dtMISS:          0
cpu0_ITLB TRANSLATION  ACCESS:          0  HIT:          0  MISS:          0  iACCESS:          0  iHIT:          0  iMISS:          0  dACCESS:          0  dHIT:          0  dMISS:          0  itACCESS:          0  itHIT:          0  itMISS:          0  dtACCESS:          0  dtHIT:          0  dtMISS:          0
cpu0_ITLB PREFETCH  REQUESTED:          0  ISSUED:          0  CROSSED:          0  USEFUL:     268235  USELESS:      53120
cpu0_ITLB AVERAGE iMISS LATENCY: 7.63779 cycles
cpu0_ITLB AVERAGE dMISS LATENCY: 0 cycles
cpu0_ITLB AVERAGE itMISS LATENCY: 0 cycles
cpu0_ITLB AVERAGE dtMISS LATENCY: 0 cycles
cpu0_ITLB PAGE CROSSINGS (TLB HIT):         0 
cpu0_ITLB PAGE CROSSINGS (TLB MISS):         0 
cpu0_ITLB AVERAGE MISS LATENCY: 7.63779 cycles
cpu0_DTLB TOTAL       ACCESS:   30915120  HIT:   27218199  MISS:    3696921  iACCESS:          0  iHIT:          0  iMISS:          0  dACCESS:   30915120  dHIT:   27218199  dMISS:    3696921  itACCESS:          0  itHIT:          0  itMISS:          0  dtACCESS:          0  dtHIT:          0  dtMISS:          0
cpu0_DTLB LOAD         ACCESS:   30915120  HIT:   27218199  MISS:    3696921  iACCESS:          0  iHIT:          0  iMISS:          0  dACCESS:   30915120  dHIT:   27218199  dMISS:    3696921  itACCESS:          0  itHIT:          0  itMISS:          0  dtACCESS:          0  dtHIT:          0  dtMISS:          0
cpu0_DTLB RFO          ACCESS:          0  HIT:          0  MISS:          0  iACCESS:          0  iHIT:          0  iMISS:          0  dACCESS:          0  dHIT:          0  dMISS:          0  itACCESS:          0  itHIT:          0  itMISS:          0  dtACCESS:          0  dtHIT:          0  dtMISS:          0
cpu0_DTLB PREFETCH     ACCESS:          0  HIT:          0  MISS:          0  iACCESS:          0  iHIT:          0  iMISS:          0  dACCESS:          0  dHIT:          0  dMISS:          0  itACCESS:          0  itHIT:          0  itMISS:          0  dtACCESS:          0  dtHIT:          0  dtMISS:          0
cpu0_DTLB WRITE        ACCESS:          0  HIT:          0  MISS:          0  iACCESS:          0  iHIT:          0  iMISS:          0  dACCESS:          0  dHIT:          0  dMISS:          0  itACCESS:          0  itHIT:          0  itMISS:          0  dtACCESS:          0  dtHIT:          0  dtMISS:          0
cpu0_DTLB TRANSLATION  ACCESS:          0  HIT:          0  MISS:          0  iACCESS:          0  iHIT:          0  iMISS:          0  dACCESS:          0  dHIT:          0  dMISS:          0  itACCESS:          0  itHIT:          0  itMISS:          0  dtACCESS:          0  dtHIT:          0  dtMISS:          0
cpu0_DTLB PREFETCH  REQUESTED:          0  ISSUED:          0  CROSSED:          0  USEFUL:          0  USELESS:          0
cpu0_DTLB AVERAGE iMISS LATENCY: 0 cycles
cpu0_DTLB AVERAGE dMISS LATENCY: 10.6662 cycles
cpu0_DTLB AVERAGE itMISS LATENCY: 0 cycles
cpu0_DTLB AVERAGE dtMISS LATENCY: 0 cycles
cpu0_DTLB PAGE CROSSINGS (TLB HIT):         0 
cpu0_DTLB PAGE CROSSINGS (TLB MISS):         0 
cpu0_DTLB AVERAGE MISS LATENCY: 10.6662 cycles
cpu0_STLB TOTAL       ACCESS:    2271240  HIT:    2069425  MISS:     201815  iACCESS:     321359  iHIT:     247649  iMISS:      73710  dACCESS:    1949881  dHIT:    1821776  dMISS:     128105  itACCESS:          0  itHIT:          0  itMISS:          0  dtACCESS:          0  dtHIT:          0  dtMISS:          0
cpu0_STLB LOAD         ACCESS:    2271240  HIT:    2069425  MISS:     201815  iACCESS:     321359  iHIT:     247649  iMISS:      73710  dACCESS:    1949881  dHIT:    1821776  dMISS:     128105  itACCESS:          0  itHIT:          0  itMISS:          0  dtACCESS:          0  dtHIT:          0  dtMISS:          0
cpu0_STLB RFO          ACCESS:          0  HIT:          0  MISS:          0  iACCESS:          0  iHIT:          0  iMISS:          0  dACCESS:          0  dHIT:          0  dMISS:          0  itACCESS:          0  itHIT:          0  itMISS:          0  dtACCESS:          0  dtHIT:          0  dtMISS:          0
cpu0_STLB PREFETCH     ACCESS:          0  HIT:          0  MISS:          0  iACCESS:          0  iHIT:          0  iMISS:          0  dACCESS:          0  dHIT:          0  dMISS:          0  itACCESS:          0  itHIT:          0  itMISS:          0  dtACCESS:          0  dtHIT:          0  dtMISS:          0
cpu0_STLB WRITE        ACCESS:          0  HIT:          0  MISS:          0  iACCESS:          0  iHIT:          0  iMISS:          0  dACCESS:          0  dHIT:          0  dMISS:          0  itACCESS:          0  itHIT:          0  itMISS:          0  dtACCESS:          0  dtHIT:          0  dtMISS:          0
cpu0_STLB TRANSLATION  ACCESS:          0  HIT:          0  MISS:          0  iACCESS:          0  iHIT:          0  iMISS:          0  dACCESS:          0  dHIT:          0  dMISS:          0  itACCESS:          0  itHIT:          0  itMISS:          0  dtACCESS:          0  dtHIT:          0  dtMISS:          0
cpu0_STLB PREFETCH  REQUESTED:          0  ISSUED:          0  CROSSED:          0  USEFUL:          0  USELESS:          0
cpu0_STLB AVERAGE iMISS LATENCY: 47.0617 cycles
cpu0_STLB AVERAGE dMISS LATENCY: 117.136 cycles
cpu0_STLB AVERAGE itMISS LATENCY: 0 cycles
cpu0_STLB AVERAGE dtMISS LATENCY: 0 cycles
cpu0_STLB PAGE CROSSINGS (TLB HIT):         0 
cpu0_STLB PAGE CROSSINGS (TLB MISS):         0 
cpu0_STLB AVERAGE MISS LATENCY: 164.198 cycles
cpu0_L1D TOTAL       ACCESS:   48008017  HIT:   41015322  MISS:    6992695  iACCESS:          0  iHIT:          0  iMISS:          0  dACCESS:   47731674  dHIT:   40992754  dMISS:    6738920  itACCESS:      85043  itHIT:      11553  itMISS:      73490  dtACCESS:     191300  dtHIT:      11015  dtMISS:     180285
cpu0_L1D LOAD         ACCESS:   23300752  HIT:   19547432  MISS:    3753320  iACCESS:          0  iHIT:          0  iMISS:          0  dACCESS:   23300752  dHIT:   19547432  dMISS:    3753320  itACCESS:          0  itHIT:          0  itMISS:          0  dtACCESS:          0  dtHIT:          0  dtMISS:          0
cpu0_L1D RFO          ACCESS:          0  HIT:          0  MISS:          0  iACCESS:          0  iHIT:          0  iMISS:          0  dACCESS:          0  dHIT:          0  dMISS:          0  itACCESS:          0  itHIT:          0  itMISS:          0  dtACCESS:          0  dtHIT:          0  dtMISS:          0
cpu0_L1D PREFETCH     ACCESS:   14535847  HIT:   12197387  MISS:    2338460  iACCESS:          0  iHIT:          0  iMISS:          0  dACCESS:   14535847  dHIT:   12197387  dMISS:    2338460  itACCESS:          0  itHIT:          0  itMISS:          0  dtACCESS:          0  dtHIT:          0  dtMISS:          0
cpu0_L1D WRITE        ACCESS:    9895075  HIT:    9247935  MISS:     647140  iACCESS:          0  iHIT:          0  iMISS:          0  dACCESS:    9895075  dHIT:    9247935  dMISS:     647140  itACCESS:          0  itHIT:          0  itMISS:          0  dtACCESS:          0  dtHIT:          0  dtMISS:          0
cpu0_L1D TRANSLATION  ACCESS:     276343  HIT:      22568  MISS:     253775  iACCESS:          0  iHIT:          0  iMISS:          0  dACCESS:          0  dHIT:          0  dMISS:          0  itACCESS:      85043  itHIT:      11553  itMISS:      73490  dtACCESS:     191300  dtHIT:      11015  dtMISS:     180285
cpu0_L1D PREFETCH  REQUESTED:   23300752  ISSUED:   18938614  CROSSED:          0  USEFUL:     289719  USELESS:     739266
cpu0_L1D AVERAGE iMISS LATENCY: 0 cycles
cpu0_L1D AVERAGE dMISS LATENCY: 27.3136 cycles
cpu0_L1D AVERAGE itMISS LATENCY: 1.25959 cycles
cpu0_L1D AVERAGE dtMISS LATENCY: 3.10348 cycles
cpu0_L1D PAGE CROSSINGS (TLB HIT):         0 
cpu0_L1D PAGE CROSSINGS (TLB MISS):         0 
cpu0_L1D AVERAGE MISS LATENCY: 31.6767 cycles
cpu0_L2C TOTAL       ACCESS:    7674883  HIT:    3762349  MISS:    3912534  iACCESS:    2736019  iHIT:    1448042  iMISS:    1287977  dACCESS:    4712886  dHIT:    2252409  dMISS:    2460477  itACCESS:      68226  itHIT:      18555  itMISS:      49671  dtACCESS:     157752  dtHIT:      43343  dtMISS:     114409
cpu0_L2C LOAD         ACCESS:    2942478  HIT:    1582214  MISS:    1360264  iACCESS:     640982  iHIT:     351415  iMISS:     289567  dACCESS:    2301496  dHIT:    1230799  dMISS:    1070697  itACCESS:          0  itHIT:          0  itMISS:          0  dtACCESS:          0  dtHIT:          0  dtMISS:          0
cpu0_L2C RFO          ACCESS:     186059  HIT:      68021  MISS:     118038  iACCESS:          0  iHIT:          0  iMISS:          0  dACCESS:     186059  dHIT:      68021  dMISS:     118038  itACCESS:          0  itHIT:          0  itMISS:          0  dtACCESS:          0  dtHIT:          0  dtMISS:          0
cpu0_L2C PREFETCH     ACCESS:    4063011  HIT:    1843437  MISS:    2219574  iACCESS:    2095037  iHIT:    1096627  iMISS:     998410  dACCESS:    1967974  dHIT:     746810  dMISS:    1221164  itACCESS:          0  itHIT:          0  itMISS:          0  dtACCESS:          0  dtHIT:          0  dtMISS:          0
cpu0_L2C WRITE        ACCESS:     257357  HIT:     206779  MISS:      50578  iACCESS:          0  iHIT:          0  iMISS:          0  dACCESS:     257357  dHIT:     206779  dMISS:      50578  itACCESS:          0  itHIT:          0  itMISS:          0  dtACCESS:          0  dtHIT:          0  dtMISS:          0
cpu0_L2C TRANSLATION  ACCESS:     225978  HIT:      61898  MISS:     164080  iACCESS:          0  iHIT:          0  iMISS:          0  dACCESS:          0  dHIT:          0  dMISS:          0  itACCESS:      68226  itHIT:      18555  itMISS:      49671  dtACCESS:     157752  dtHIT:      43343  dtMISS:     114409
cpu0_L2C PREFETCH  REQUESTED:    1111750  ISSUED:    1111717  CROSSED:          0  USEFUL:     251599  USELESS:     259035
cpu0_L2C AVERAGE iMISS LATENCY: 27.957 cycles
cpu0_L2C AVERAGE dMISS LATENCY: 54.3157 cycles
cpu0_L2C AVERAGE itMISS LATENCY: 2.08105 cycles
cpu0_L2C AVERAGE dtMISS LATENCY: 5.15255 cycles
cpu0_L2C PAGE CROSSINGS (TLB HIT):         0 
cpu0_L2C PAGE CROSSINGS (TLB MISS):         0 
cpu0_L2C AVERAGE MISS LATENCY: 89.5063 cycles
LLC TOTAL       ACCESS:    3872326  HIT:    2174496  MISS:    1697830  iACCESS:    1230432  iHIT:     658112  iMISS:     572320  dACCESS:    2477814  dHIT:    1486822  dMISS:     990992  itACCESS:      49671  itHIT:       8614  itMISS:      41057  dtACCESS:     114409  dtHIT:      20948  dtMISS:      93461
LLC LOAD         ACCESS:    1354985  HIT:     970190  MISS:     384795  iACCESS:     288599  iHIT:     170634  iMISS:     117965  dACCESS:    1066386  dHIT:     799556  dMISS:     266830  itACCESS:          0  itHIT:          0  itMISS:          0  dtACCESS:          0  dtHIT:          0  dtMISS:          0
LLC RFO          ACCESS:     118023  HIT:      46400  MISS:      71623  iACCESS:          0  iHIT:          0  iMISS:          0  dACCESS:     118023  dHIT:      46400  dMISS:      71623  itACCESS:          0  itHIT:          0  itMISS:          0  dtACCESS:          0  dtHIT:          0  dtMISS:          0
LLC PREFETCH     ACCESS:    2083905  HIT:     981817  MISS:    1102088  iACCESS:     941833  iHIT:     487478  iMISS:     454355  dACCESS:    1142072  dHIT:     494339  dMISS:     647733  itACCESS:          0  itHIT:          0  itMISS:          0  dtACCESS:          0  dtHIT:          0  dtMISS:          0
LLC WRITE        ACCESS:     151333  HIT:     146527  MISS:       4806  iACCESS:          0  iHIT:          0  iMISS:          0  dACCESS:     151333  dHIT:     146527  dMISS:       4806  itACCESS:          0  itHIT:          0  itMISS:          0  dtACCESS:          0  dtHIT:          0  dtMISS:          0
LLC TRANSLATION  ACCESS:     164080  HIT:      29562  MISS:     134518  iACCESS:          0  iHIT:          0  iMISS:          0  dACCESS:          0  dHIT:          0  dMISS:          0  itACCESS:      49671  itHIT:       8614  itMISS:      41057  dtACCESS:     114409  dtHIT:      20948  dtMISS:      93461
LLC PREFETCH  REQUESTED:          0  ISSUED:          0  CROSSED:          0  USEFUL:          0  USELESS:          0
LLC AVERAGE iMISS LATENCY: 50.2677 cycles
LLC AVERAGE dMISS LATENCY: 99.4385 cycles
LLC AVERAGE itMISS LATENCY: 4.2178 cycles
LLC AVERAGE dtMISS LATENCY: 10.546 cycles
LLC PAGE CROSSINGS (TLB HIT):         0 
LLC PAGE CROSSINGS (TLB MISS):         0 
LLC AVERAGE MISS LATENCY: 164.47 cycles

PageTableWalker TOTAL       ACCESS:      94281  
PageTableWalker AVERAGE LATENCY: 4.33647 cycles
PageTableWalker TOTAL LATENCY: 408846 cycles

DRAM Statistics
Channel 0
 RQ ROW_BUFFER_HIT:     468503
  ROW_BUFFER_MISS:    1210635
 AVG DBUS CONGESTED CYCLE:    3.64973
 WQ ROW_BUFFER_HIT:      37712
  ROW_BUFFER_MISS:      33619  FULL:          0

