last_page:0x200000000000000
VMEM_RES_CAP:0x100000
PAGE_SIZE:4096
LOG2_PAGE_SIZE:12
LOG2_PAGE_TABLE_SIZE:9
page_table_levels:5
WARNING: physical memory size is smaller than virtual memory size
FDiP enabled with aggresivity 16

*** ChampSim Multicore Out-of-Order Simulator ***

Warmup Instructions: 50000000
Simulation Instructions: 100000000
Number of CPUs: 1
Small page size: 4096
Large page size: 2097152

CPU 0 Bimodal branch predictor
Basic BTB sets: 1024 ways: 8 indirect buffer size: 4096 RAS size: 64
Instruction page size distrubution: 0
Loading instruction page size distribution from /home/bsc/bsc018186/scratch/itp_asplos25_AE/dump/srv764_ap.pdst
Data page size distrubution: 0
Loading data page size distribution from /home/bsc/bsc018186/scratch/itp_asplos25_AE/dump/srv764_ap.pdst
cpu0_L2C IP-based stride prefetcher
cpu0_L1D next line prefetcher
cpu0_STLB using iTP with max lru@8
cpu0_STLB using iTP with instr@0 and data@2
Init sat counter with 3 bits (max:50).
cpu0_L1I next line prefetcher
Off-chip DRAM Size: 4 GiB Channels: 1 Width: 64-bit Data Rate: 3200 MT/s
Heartbeat CPU 0 instructions: 10000003 cycles: 2500066 heartbeat IPC: 3.9999 cumulative IPC: 3.9999 (Simulation time: 0 hr 0 min 36 sec) 
Heartbeat CPU 0 instructions: 20000003 cycles: 5000098 heartbeat IPC: 3.99995 cumulative IPC: 3.99993 (Simulation time: 0 hr 1 min 14 sec) 
Heartbeat CPU 0 instructions: 30000002 cycles: 7500136 heartbeat IPC: 3.99994 cumulative IPC: 3.99993 (Simulation time: 0 hr 1 min 53 sec) 
Heartbeat CPU 0 instructions: 40000002 cycles: 10000142 heartbeat IPC: 4 cumulative IPC: 3.99995 (Simulation time: 0 hr 2 min 32 sec) 
Heartbeat CPU 0 instructions: 50000001 cycles: 12886168 heartbeat IPC: 3.46498 cumulative IPC: 3.88013 (Simulation time: 0 hr 3 min 11 sec) 
Warmup finished CPU 0 instructions: 50000001 cycles: 12886169 cumulative IPC: 3.88013 (Simulation time: 0 hr 3 min 11 sec) 

Warmup complete CPU 0 instructions: 50000001 cycles: 12886169 (Simulation time: 0 hr 3 min 11 sec) 

Heartbeat CPU 0 instructions: 60000003 cycles: 26070364 heartbeat IPC: 0.758485 cumulative IPC: 0.758485 (Simulation time: 0 hr 4 min 12 sec) 
Heartbeat CPU 0 instructions: 70000001 cycles: 45057127 heartbeat IPC: 0.526683 cumulative IPC: 0.621679 (Simulation time: 0 hr 5 min 19 sec) 
Heartbeat CPU 0 instructions: 80000001 cycles: 63516283 heartbeat IPC: 0.541737 cumulative IPC: 0.592533 (Simulation time: 0 hr 6 min 26 sec) 
Heartbeat CPU 0 instructions: 90000002 cycles: 81983775 heartbeat IPC: 0.541493 cumulative IPC: 0.578892 (Simulation time: 0 hr 7 min 33 sec) 
Heartbeat CPU 0 instructions: 100000000 cycles: 99958751 heartbeat IPC: 0.556329 cumulative IPC: 0.574234 (Simulation time: 0 hr 8 min 39 sec) 
*** Reached end of trace: /gpfs/projects/bsc18/MN4/bsc18/romol/ChampSim/traces/qualcomm_srv/srv764_ap.champsimtrace.xz
Heartbeat CPU 0 instructions: 110000004 cycles: 117760747 heartbeat IPC: 0.561735 cumulative IPC: 0.572112 (Simulation time: 0 hr 9 min 45 sec) 
Heartbeat CPU 0 instructions: 120000002 cycles: 136127673 heartbeat IPC: 0.544457 cumulative IPC: 0.567991 (Simulation time: 0 hr 10 min 51 sec) 
Heartbeat CPU 0 instructions: 130000000 cycles: 155151993 heartbeat IPC: 0.525643 cumulative IPC: 0.562328 (Simulation time: 0 hr 11 min 58 sec) 
Heartbeat CPU 0 instructions: 140000003 cycles: 174034417 heartbeat IPC: 0.529594 cumulative IPC: 0.558492 (Simulation time: 0 hr 13 min 5 sec) 
Heartbeat CPU 0 instructions: 150000002 cycles: 188213219 heartbeat IPC: 0.705279 cumulative IPC: 0.570363 (Simulation time: 0 hr 14 min 7 sec) 
Simulation finished CPU 0 instructions: 100000001 cycles: 175327051 cumulative IPC: 0.570363 (Simulation time: 0 hr 14 min 7 sec) 

Simulation complete CPU 0 instructions: 100000001 cycles: 175327051 (Simulation time: 0 hr 14 min 7 sec) 


ChampSim completed all CPUs

Saving instructions large page distribution to /home/bsc/bsc018186/scratch/itp_asplos25_AE/dump/srv764_ap.pdst...
Saving data large page distribution to /home/bsc/bsc018186/scratch/itp_asplos25_AE/dump/srv764_ap.pdst...
=== Simulation ===
CPU 0 runs /gpfs/projects/bsc18/MN4/bsc18/romol/ChampSim/traces/qualcomm_srv/srv764_ap.champsimtrace.xz

Region of Interest Statistics

CPU 0 cumulative IPC: 0.570363 instructions: 100000001 cycles: 175327051
CPU 0 Branch Prediction Accuracy: 82.3659% MPKI: 33.5305 Average ROB Occupancy at Mispredict: 11.3529
Branch type MPKI
BRANCH_DIRECT_JUMP: 1.21738
BRANCH_INDIRECT: 16.9293
BRANCH_CONDITIONAL: 10.8073
BRANCH_DIRECT_CALL: 2.28574
BRANCH_INDIRECT_CALL: 0.6881
BRANCH_RETURN: 1.60283

Instructions large pages: 0
Instructions small pages: 5930
Large page distribution for instructions: 0%

Data large pages: 0
Data small pages: 4775
Large page distribution for data: 0%

cpu0_L1I TOTAL       ACCESS:   35118708  HIT:   27453805  MISS:    7664903  iACCESS:   35118708  iHIT:   27453805  iMISS:    7664903  dACCESS:          0  dHIT:          0  dMISS:          0  itACCESS:          0  itHIT:          0  itMISS:          0  dtACCESS:          0  dtHIT:          0  dtMISS:          0
cpu0_L1I LOAD         ACCESS:    9522540  HIT:    7420988  MISS:    2101552  iACCESS:    9522540  iHIT:    7420988  iMISS:    2101552  dACCESS:          0  dHIT:          0  dMISS:          0  itACCESS:          0  itHIT:          0  itMISS:          0  dtACCESS:          0  dtHIT:          0  dtMISS:          0
cpu0_L1I RFO          ACCESS:          0  HIT:          0  MISS:          0  iACCESS:          0  iHIT:          0  iMISS:          0  dACCESS:          0  dHIT:          0  dMISS:          0  itACCESS:          0  itHIT:          0  itMISS:          0  dtACCESS:          0  dtHIT:          0  dtMISS:          0
cpu0_L1I PREFETCH     ACCESS:   25596168  HIT:   20032817  MISS:    5563351  iACCESS:   25596168  iHIT:   20032817  iMISS:    5563351  dACCESS:          0  dHIT:          0  dMISS:          0  itACCESS:          0  itHIT:          0  itMISS:          0  dtACCESS:          0  dtHIT:          0  dtMISS:          0
cpu0_L1I WRITE        ACCESS:          0  HIT:          0  MISS:          0  iACCESS:          0  iHIT:          0  iMISS:          0  dACCESS:          0  dHIT:          0  dMISS:          0  itACCESS:          0  itHIT:          0  itMISS:          0  dtACCESS:          0  dtHIT:          0  dtMISS:          0
cpu0_L1I TRANSLATION  ACCESS:          0  HIT:          0  MISS:          0  iACCESS:          0  iHIT:          0  iMISS:          0  dACCESS:          0  dHIT:          0  dMISS:          0  itACCESS:          0  itHIT:          0  itMISS:          0  dtACCESS:          0  dtHIT:          0  dtMISS:          0
cpu0_L1I PREFETCH  REQUESTED:   27601536  ISSUED:   27600385  CROSSED:          0  USEFUL:    1822883  USELESS:     604756
cpu0_L1I AVERAGE iMISS LATENCY: 18.9715 cycles
cpu0_L1I AVERAGE dMISS LATENCY: 0 cycles
cpu0_L1I AVERAGE itMISS LATENCY: 0 cycles
cpu0_L1I AVERAGE dtMISS LATENCY: 0 cycles
cpu0_L1I PAGE CROSSINGS (TLB HIT):         0 
cpu0_L1I PAGE CROSSINGS (TLB MISS):         0 
cpu0_L1I AVERAGE MISS LATENCY: 18.9715 cycles
cpu0_ITLB TOTAL       ACCESS:   29464135  HIT:   27679553  MISS:    1784582  iACCESS:   29464135  iHIT:   27679553  iMISS:    1784582  dACCESS:          0  dHIT:          0  dMISS:          0  itACCESS:          0  itHIT:          0  itMISS:          0  dtACCESS:          0  dtHIT:          0  dtMISS:          0
cpu0_ITLB LOAD         ACCESS:   29464135  HIT:   27679553  MISS:    1784582  iACCESS:   29464135  iHIT:   27679553  iMISS:    1784582  dACCESS:          0  dHIT:          0  dMISS:          0  itACCESS:          0  itHIT:          0  itMISS:          0  dtACCESS:          0  dtHIT:          0  dtMISS:          0
cpu0_ITLB RFO          ACCESS:          0  HIT:          0  MISS:          0  iACCESS:          0  iHIT:          0  iMISS:          0  dACCESS:          0  dHIT:          0  dMISS:          0  itACCESS:          0  itHIT:          0  itMISS:          0  dtACCESS:          0  dtHIT:          0  dtMISS:          0
cpu0_ITLB PREFETCH     ACCESS:          0  HIT:          0  MISS:          0  iACCESS:          0  iHIT:          0  iMISS:          0  dACCESS:          0  dHIT:          0  dMISS:          0  itACCESS:          0  itHIT:          0  itMISS:          0  dtACCESS:          0  dtHIT:          0  dtMISS:          0
cpu0_ITLB WRITE        ACCESS:          0  HIT:          0  MISS:          0  iACCESS:          0  iHIT:          0  iMISS:          0  dACCESS:          0  dHIT:          0  dMISS:          0  itACCESS:          0  itHIT:          0  itMISS:          0  dtACCESS:          0  dtHIT:          0  dtMISS:          0
cpu0_ITLB TRANSLATION  ACCESS:          0  HIT:          0  MISS:          0  iACCESS:          0  iHIT:          0  iMISS:          0  dACCESS:          0  dHIT:          0  dMISS:          0  itACCESS:          0  itHIT:          0  itMISS:          0  dtACCESS:          0  dtHIT:          0  dtMISS:          0
cpu0_ITLB PREFETCH  REQUESTED:          0  ISSUED:          0  CROSSED:          0  USEFUL:     304994  USELESS:      56870
cpu0_ITLB AVERAGE iMISS LATENCY: 2.82264 cycles
cpu0_ITLB AVERAGE dMISS LATENCY: 0 cycles
cpu0_ITLB AVERAGE itMISS LATENCY: 0 cycles
cpu0_ITLB AVERAGE dtMISS LATENCY: 0 cycles
cpu0_ITLB PAGE CROSSINGS (TLB HIT):         0 
cpu0_ITLB PAGE CROSSINGS (TLB MISS):         0 
cpu0_ITLB AVERAGE MISS LATENCY: 2.82264 cycles
cpu0_DTLB TOTAL       ACCESS:   29318681  HIT:   25738278  MISS:    3580403  iACCESS:          0  iHIT:          0  iMISS:          0  dACCESS:   29318681  dHIT:   25738278  dMISS:    3580403  itACCESS:          0  itHIT:          0  itMISS:          0  dtACCESS:          0  dtHIT:          0  dtMISS:          0
cpu0_DTLB LOAD         ACCESS:   29318681  HIT:   25738278  MISS:    3580403  iACCESS:          0  iHIT:          0  iMISS:          0  dACCESS:   29318681  dHIT:   25738278  dMISS:    3580403  itACCESS:          0  itHIT:          0  itMISS:          0  dtACCESS:          0  dtHIT:          0  dtMISS:          0
cpu0_DTLB RFO          ACCESS:          0  HIT:          0  MISS:          0  iACCESS:          0  iHIT:          0  iMISS:          0  dACCESS:          0  dHIT:          0  dMISS:          0  itACCESS:          0  itHIT:          0  itMISS:          0  dtACCESS:          0  dtHIT:          0  dtMISS:          0
cpu0_DTLB PREFETCH     ACCESS:          0  HIT:          0  MISS:          0  iACCESS:          0  iHIT:          0  iMISS:          0  dACCESS:          0  dHIT:          0  dMISS:          0  itACCESS:          0  itHIT:          0  itMISS:          0  dtACCESS:          0  dtHIT:          0  dtMISS:          0
cpu0_DTLB WRITE        ACCESS:          0  HIT:          0  MISS:          0  iACCESS:          0  iHIT:          0  iMISS:          0  dACCESS:          0  dHIT:          0  dMISS:          0  itACCESS:          0  itHIT:          0  itMISS:          0  dtACCESS:          0  dtHIT:          0  dtMISS:          0
cpu0_DTLB TRANSLATION  ACCESS:          0  HIT:          0  MISS:          0  iACCESS:          0  iHIT:          0  iMISS:          0  dACCESS:          0  dHIT:          0  dMISS:          0  itACCESS:          0  itHIT:          0  itMISS:          0  dtACCESS:          0  dtHIT:          0  dtMISS:          0
cpu0_DTLB PREFETCH  REQUESTED:          0  ISSUED:          0  CROSSED:          0  USEFUL:          0  USELESS:          0
cpu0_DTLB AVERAGE iMISS LATENCY: 0 cycles
cpu0_DTLB AVERAGE dMISS LATENCY: 8.87 cycles
cpu0_DTLB AVERAGE itMISS LATENCY: 0 cycles
cpu0_DTLB AVERAGE dtMISS LATENCY: 0 cycles
cpu0_DTLB PAGE CROSSINGS (TLB HIT):         0 
cpu0_DTLB PAGE CROSSINGS (TLB MISS):         0 
cpu0_DTLB AVERAGE MISS LATENCY: 8.87 cycles
cpu0_STLB TOTAL       ACCESS:    2313570  HIT:    2121365  MISS:     192205  iACCESS:     361869  iHIT:     339516  iMISS:      22353  dACCESS:    1951701  dHIT:    1781849  dMISS:     169852  itACCESS:          0  itHIT:          0  itMISS:          0  dtACCESS:          0  dtHIT:          0  dtMISS:          0
cpu0_STLB LOAD         ACCESS:    2313570  HIT:    2121365  MISS:     192205  iACCESS:     361869  iHIT:     339516  iMISS:      22353  dACCESS:    1951701  dHIT:    1781849  dMISS:     169852  itACCESS:          0  itHIT:          0  itMISS:          0  dtACCESS:          0  dtHIT:          0  dtMISS:          0
cpu0_STLB RFO          ACCESS:          0  HIT:          0  MISS:          0  iACCESS:          0  iHIT:          0  iMISS:          0  dACCESS:          0  dHIT:          0  dMISS:          0  itACCESS:          0  itHIT:          0  itMISS:          0  dtACCESS:          0  dtHIT:          0  dtMISS:          0
cpu0_STLB PREFETCH     ACCESS:          0  HIT:          0  MISS:          0  iACCESS:          0  iHIT:          0  iMISS:          0  dACCESS:          0  dHIT:          0  dMISS:          0  itACCESS:          0  itHIT:          0  itMISS:          0  dtACCESS:          0  dtHIT:          0  dtMISS:          0
cpu0_STLB WRITE        ACCESS:          0  HIT:          0  MISS:          0  iACCESS:          0  iHIT:          0  iMISS:          0  dACCESS:          0  dHIT:          0  dMISS:          0  itACCESS:          0  itHIT:          0  itMISS:          0  dtACCESS:          0  dtHIT:          0  dtMISS:          0
cpu0_STLB TRANSLATION  ACCESS:          0  HIT:          0  MISS:          0  iACCESS:          0  iHIT:          0  iMISS:          0  dACCESS:          0  dHIT:          0  dMISS:          0  itACCESS:          0  itHIT:          0  itMISS:          0  dtACCESS:          0  dtHIT:          0  dtMISS:          0
cpu0_STLB PREFETCH  REQUESTED:          0  ISSUED:          0  CROSSED:          0  USEFUL:          0  USELESS:          0
cpu0_STLB AVERAGE iMISS LATENCY: 11.5205 cycles
cpu0_STLB AVERAGE dMISS LATENCY: 82.9959 cycles
cpu0_STLB AVERAGE itMISS LATENCY: 0 cycles
cpu0_STLB AVERAGE dtMISS LATENCY: 0 cycles
cpu0_STLB PAGE CROSSINGS (TLB HIT):         0 
cpu0_STLB PAGE CROSSINGS (TLB MISS):         0 
cpu0_STLB AVERAGE MISS LATENCY: 94.5164 cycles
cpu0_L1D TOTAL       ACCESS:   45075874  HIT:   38766430  MISS:    6309444  iACCESS:          0  iHIT:          0  iMISS:          0  dACCESS:   44816606  dHIT:   38750531  dMISS:    6066075  itACCESS:      25288  itHIT:       1865  itMISS:      23423  dtACCESS:     233980  dtHIT:      14034  dtMISS:     219946
cpu0_L1D LOAD         ACCESS:   21509365  HIT:   18018429  MISS:    3490936  iACCESS:          0  iHIT:          0  iMISS:          0  dACCESS:   21509365  dHIT:   18018429  dMISS:    3490936  itACCESS:          0  itHIT:          0  itMISS:          0  dtACCESS:          0  dtHIT:          0  dtMISS:          0
cpu0_L1D RFO          ACCESS:          0  HIT:          0  MISS:          0  iACCESS:          0  iHIT:          0  iMISS:          0  dACCESS:          0  dHIT:          0  dMISS:          0  itACCESS:          0  itHIT:          0  itMISS:          0  dtACCESS:          0  dtHIT:          0  dtMISS:          0
cpu0_L1D PREFETCH     ACCESS:   13415490  HIT:   11290749  MISS:    2124741  iACCESS:          0  iHIT:          0  iMISS:          0  dACCESS:   13415490  dHIT:   11290749  dMISS:    2124741  itACCESS:          0  itHIT:          0  itMISS:          0  dtACCESS:          0  dtHIT:          0  dtMISS:          0
cpu0_L1D WRITE        ACCESS:    9891751  HIT:    9441353  MISS:     450398  iACCESS:          0  iHIT:          0  iMISS:          0  dACCESS:    9891751  dHIT:    9441353  dMISS:     450398  itACCESS:          0  itHIT:          0  itMISS:          0  dtACCESS:          0  dtHIT:          0  dtMISS:          0
cpu0_L1D TRANSLATION  ACCESS:     259268  HIT:      15899  MISS:     243369  iACCESS:          0  iHIT:          0  iMISS:          0  dACCESS:          0  dHIT:          0  dMISS:          0  itACCESS:      25288  itHIT:       1865  itMISS:      23423  dtACCESS:     233980  dtHIT:      14034  dtMISS:     219946
cpu0_L1D PREFETCH  REQUESTED:   21509365  ISSUED:   17435495  CROSSED:          0  USEFUL:     285744  USELESS:     690622
cpu0_L1D AVERAGE iMISS LATENCY: 0 cycles
cpu0_L1D AVERAGE dMISS LATENCY: 28.0768 cycles
cpu0_L1D AVERAGE itMISS LATENCY: 0.313733 cycles
cpu0_L1D AVERAGE dtMISS LATENCY: 2.16825 cycles
cpu0_L1D PAGE CROSSINGS (TLB HIT):         0 
cpu0_L1D PAGE CROSSINGS (TLB MISS):         0 
cpu0_L1D AVERAGE MISS LATENCY: 30.5588 cycles
cpu0_L2C TOTAL       ACCESS:    7981078  HIT:    2148433  MISS:    5832645  iACCESS:    3095821  iHIT:     779604  iMISS:    2316217  dACCESS:    4648692  dHIT:    1239680  dMISS:    3409012  itACCESS:      23423  itHIT:      11816  itMISS:      11607  dtACCESS:     213142  dtHIT:     117333  dtMISS:      95809
cpu0_L2C LOAD         ACCESS:    2795349  HIT:     853938  MISS:    1941411  iACCESS:     702091  iHIT:     129169  iMISS:     572922  dACCESS:    2093258  dHIT:     724769  dMISS:    1368489  itACCESS:          0  itHIT:          0  itMISS:          0  dtACCESS:          0  dtHIT:          0  dtMISS:          0
cpu0_L2C RFO          ACCESS:     166986  HIT:      51579  MISS:     115407  iACCESS:          0  iHIT:          0  iMISS:          0  dACCESS:     166986  dHIT:      51579  dMISS:     115407  itACCESS:          0  itHIT:          0  itMISS:          0  dtACCESS:          0  dtHIT:          0  dtMISS:          0
cpu0_L2C PREFETCH     ACCESS:    4528973  HIT:    1006101  MISS:    3522872  iACCESS:    2393730  iHIT:     650435  iMISS:    1743295  dACCESS:    2135243  dHIT:     355666  dMISS:    1779577  itACCESS:          0  itHIT:          0  itMISS:          0  dtACCESS:          0  dtHIT:          0  dtMISS:          0
cpu0_L2C WRITE        ACCESS:     253205  HIT:     107666  MISS:     145539  iACCESS:          0  iHIT:          0  iMISS:          0  dACCESS:     253205  dHIT:     107666  dMISS:     145539  itACCESS:          0  itHIT:          0  itMISS:          0  dtACCESS:          0  dtHIT:          0  dtMISS:          0
cpu0_L2C TRANSLATION  ACCESS:     236565  HIT:     129149  MISS:     107416  iACCESS:          0  iHIT:          0  iMISS:          0  dACCESS:          0  dHIT:          0  dMISS:          0  itACCESS:      23423  itHIT:      11816  itMISS:      11607  dtACCESS:     213142  dtHIT:     117333  dtMISS:      95809
cpu0_L2C PREFETCH  REQUESTED:    1395956  ISSUED:    1395955  CROSSED:          0  USEFUL:     379276  USELESS:     402081
cpu0_L2C AVERAGE iMISS LATENCY: 20.1418 cycles
cpu0_L2C AVERAGE dMISS LATENCY: 34.8923 cycles
cpu0_L2C AVERAGE itMISS LATENCY: 0.301109 cycles
cpu0_L2C AVERAGE dtMISS LATENCY: 1.99863 cycles
cpu0_L2C PAGE CROSSINGS (TLB HIT):         0 
cpu0_L2C PAGE CROSSINGS (TLB MISS):         0 
cpu0_L2C AVERAGE MISS LATENCY: 57.3338 cycles
LLC TOTAL       ACCESS:    5651039  HIT:    4213985  MISS:    1437054  iACCESS:    2245579  iHIT:    1742312  iMISS:     503267  dACCESS:    3298044  dHIT:    2426369  dMISS:     871675  itACCESS:      11607  itHIT:       2826  itMISS:       8781  dtACCESS:      95809  dtHIT:      42478  dtMISS:      53331
LLC LOAD         ACCESS:    1935139  HIT:    1613822  MISS:     321317  iACCESS:     571656  iHIT:     467081  iMISS:     104575  dACCESS:    1363483  dHIT:    1146741  dMISS:     216742  itACCESS:          0  itHIT:          0  itMISS:          0  dtACCESS:          0  dtHIT:          0  dtMISS:          0
LLC RFO          ACCESS:     115405  HIT:      63547  MISS:      51858  iACCESS:          0  iHIT:          0  iMISS:          0  dACCESS:     115405  dHIT:      63547  dMISS:      51858  itACCESS:          0  itHIT:          0  itMISS:          0  dtACCESS:          0  dtHIT:          0  dtMISS:          0
LLC PREFETCH     ACCESS:    3349392  HIT:    2358064  MISS:     991328  iACCESS:    1673923  iHIT:    1275231  iMISS:     398692  dACCESS:    1675469  dHIT:    1082833  dMISS:     592636  itACCESS:          0  itHIT:          0  itMISS:          0  dtACCESS:          0  dtHIT:          0  dtMISS:          0
LLC WRITE        ACCESS:     143687  HIT:     133248  MISS:      10439  iACCESS:          0  iHIT:          0  iMISS:          0  dACCESS:     143687  dHIT:     133248  dMISS:      10439  itACCESS:          0  itHIT:          0  itMISS:          0  dtACCESS:          0  dtHIT:          0  dtMISS:          0
LLC TRANSLATION  ACCESS:     107416  HIT:      45304  MISS:      62112  iACCESS:          0  iHIT:          0  iMISS:          0  dACCESS:          0  dHIT:          0  dMISS:          0  itACCESS:      11607  itHIT:       2826  itMISS:       8781  dtACCESS:      95809  dtHIT:      42478  dtMISS:      53331
LLC PREFETCH  REQUESTED:          0  ISSUED:          0  CROSSED:          0  USEFUL:          0  USELESS:          0
LLC AVERAGE iMISS LATENCY: 51.5095 cycles
LLC AVERAGE dMISS LATENCY: 100.034 cycles
LLC AVERAGE itMISS LATENCY: 1.06297 cycles
LLC AVERAGE dtMISS LATENCY: 6.80943 cycles
LLC PAGE CROSSINGS (TLB HIT):         0 
LLC PAGE CROSSINGS (TLB MISS):         0 
LLC AVERAGE MISS LATENCY: 159.416 cycles

PageTableWalker TOTAL       ACCESS:      88642  
PageTableWalker AVERAGE LATENCY: 4.48436 cycles
PageTableWalker TOTAL LATENCY: 397502 cycles

DRAM Statistics
Channel 0
 RQ ROW_BUFFER_HIT:     417664
  ROW_BUFFER_MISS:     999424
 AVG DBUS CONGESTED CYCLE:    3.63526
 WQ ROW_BUFFER_HIT:      28695
  ROW_BUFFER_MISS:      22519  FULL:          0

