last_page:0x200000000000000
VMEM_RES_CAP:0x100000
PAGE_SIZE:4096
LOG2_PAGE_SIZE:12
LOG2_PAGE_TABLE_SIZE:9
page_table_levels:5
WARNING: physical memory size is smaller than virtual memory size
FDiP enabled with aggresivity 16

*** ChampSim Multicore Out-of-Order Simulator ***

Warmup Instructions: 50000000
Simulation Instructions: 100000000
Number of CPUs: 1
Small page size: 4096
Large page size: 2097152

CPU 0 Bimodal branch predictor
Basic BTB sets: 1024 ways: 8 indirect buffer size: 4096 RAS size: 64
Instruction page size distrubution: 0
Loading instruction page size distribution from /home/bsc/bsc018186/scratch/itp_asplos25_AE/dump/srv727_ap.pdst
Data page size distrubution: 0
Loading data page size distribution from /home/bsc/bsc018186/scratch/itp_asplos25_AE/dump/srv727_ap.pdst
cpu0_L2C IP-based stride prefetcher
cpu0_L2C is using PTP replacement policy:
	TLB_STRESS_THRESHOLD:0
	PTE_EVICTION_RATIO:0
cpu0_L1D next line prefetcher
cpu0_L1I next line prefetcher
Off-chip DRAM Size: 4 GiB Channels: 1 Width: 64-bit Data Rate: 3200 MT/s
Heartbeat CPU 0 instructions: 10000003 cycles: 2500128 heartbeat IPC: 3.9998 cumulative IPC: 3.9998 (Simulation time: 0 hr 0 min 37 sec) 
Heartbeat CPU 0 instructions: 20000001 cycles: 5000218 heartbeat IPC: 3.99986 cumulative IPC: 3.99983 (Simulation time: 0 hr 1 min 17 sec) 
Heartbeat CPU 0 instructions: 30000003 cycles: 7500223 heartbeat IPC: 4 cumulative IPC: 3.99989 (Simulation time: 0 hr 1 min 57 sec) 
Heartbeat CPU 0 instructions: 40000003 cycles: 10000868 heartbeat IPC: 3.99897 cumulative IPC: 3.99966 (Simulation time: 0 hr 2 min 37 sec) 
Heartbeat CPU 0 instructions: 50000001 cycles: 12500947 heartbeat IPC: 3.99988 cumulative IPC: 3.9997 (Simulation time: 0 hr 3 min 18 sec) 
Warmup finished CPU 0 instructions: 50000001 cycles: 12500948 cumulative IPC: 3.9997 (Simulation time: 0 hr 3 min 18 sec) 

Warmup complete CPU 0 instructions: 50000001 cycles: 12500948 (Simulation time: 0 hr 3 min 18 sec) 

Heartbeat CPU 0 instructions: 60000002 cycles: 31023098 heartbeat IPC: 0.539895 cumulative IPC: 0.539895 (Simulation time: 0 hr 4 min 27 sec) 
Heartbeat CPU 0 instructions: 70000000 cycles: 49274240 heartbeat IPC: 0.547911 cumulative IPC: 0.543873 (Simulation time: 0 hr 5 min 37 sec) 
Heartbeat CPU 0 instructions: 80000003 cycles: 68033848 heartbeat IPC: 0.533061 cumulative IPC: 0.540221 (Simulation time: 0 hr 6 min 48 sec) 
Heartbeat CPU 0 instructions: 90000000 cycles: 85781656 heartbeat IPC: 0.56345 cumulative IPC: 0.545847 (Simulation time: 0 hr 7 min 59 sec) 
Heartbeat CPU 0 instructions: 100000001 cycles: 104842331 heartbeat IPC: 0.524641 cumulative IPC: 0.54147 (Simulation time: 0 hr 9 min 11 sec) 
*** Reached end of trace: /gpfs/projects/bsc18/MN4/bsc18/romol/ChampSim/traces/qualcomm_srv/srv727_ap.champsimtrace.xz
Heartbeat CPU 0 instructions: 110000001 cycles: 122336714 heartbeat IPC: 0.571613 cumulative IPC: 0.546271 (Simulation time: 0 hr 10 min 21 sec) 
Heartbeat CPU 0 instructions: 120000002 cycles: 140023314 heartbeat IPC: 0.5654 cumulative IPC: 0.548924 (Simulation time: 0 hr 11 min 31 sec) 
Heartbeat CPU 0 instructions: 130000001 cycles: 158643978 heartbeat IPC: 0.537038 cumulative IPC: 0.547409 (Simulation time: 0 hr 12 min 43 sec) 
Heartbeat CPU 0 instructions: 140000004 cycles: 176790425 heartbeat IPC: 0.551073 cumulative IPC: 0.547814 (Simulation time: 0 hr 13 min 54 sec) 
Heartbeat CPU 0 instructions: 150000003 cycles: 195143007 heartbeat IPC: 0.544883 cumulative IPC: 0.54752 (Simulation time: 0 hr 15 min 5 sec) 
Simulation finished CPU 0 instructions: 100000002 cycles: 182642060 cumulative IPC: 0.54752 (Simulation time: 0 hr 15 min 5 sec) 

Simulation complete CPU 0 instructions: 100000002 cycles: 182642060 (Simulation time: 0 hr 15 min 5 sec) 


ChampSim completed all CPUs

Saving instructions large page distribution to /home/bsc/bsc018186/scratch/itp_asplos25_AE/dump/srv727_ap.pdst...
Saving data large page distribution to /home/bsc/bsc018186/scratch/itp_asplos25_AE/dump/srv727_ap.pdst...
=== Simulation ===
CPU 0 runs /gpfs/projects/bsc18/MN4/bsc18/romol/ChampSim/traces/qualcomm_srv/srv727_ap.champsimtrace.xz

Region of Interest Statistics

CPU 0 cumulative IPC: 0.54752 instructions: 100000002 cycles: 182642060
CPU 0 Branch Prediction Accuracy: 80.2071% MPKI: 35.6611 Average ROB Occupancy at Mispredict: 10.2892
Branch type MPKI
BRANCH_DIRECT_JUMP: 1.31546
BRANCH_INDIRECT: 17.8474
BRANCH_CONDITIONAL: 11.594
BRANCH_DIRECT_CALL: 2.46883
BRANCH_INDIRECT_CALL: 0.6923
BRANCH_RETURN: 1.74308

Instructions large pages: 0
Instructions small pages: 5810
Large page distribution for instructions: 0%

Data large pages: 0
Data small pages: 4708
Large page distribution for data: 0%

cpu0_L1I TOTAL       ACCESS:   35798590  HIT:   27346586  MISS:    8452004  iACCESS:   35798590  iHIT:   27346586  iMISS:    8452004  dACCESS:          0  dHIT:          0  dMISS:          0  itACCESS:          0  itHIT:          0  itMISS:          0  dtACCESS:          0  dtHIT:          0  dtMISS:          0
cpu0_L1I LOAD         ACCESS:   10309437  HIT:    7989496  MISS:    2319941  iACCESS:   10309437  iHIT:    7989496  iMISS:    2319941  dACCESS:          0  dHIT:          0  dMISS:          0  itACCESS:          0  itHIT:          0  itMISS:          0  dtACCESS:          0  dtHIT:          0  dtMISS:          0
cpu0_L1I RFO          ACCESS:          0  HIT:          0  MISS:          0  iACCESS:          0  iHIT:          0  iMISS:          0  dACCESS:          0  dHIT:          0  dMISS:          0  itACCESS:          0  itHIT:          0  itMISS:          0  dtACCESS:          0  dtHIT:          0  dtMISS:          0
cpu0_L1I PREFETCH     ACCESS:   25489153  HIT:   19357090  MISS:    6132063  iACCESS:   25489153  iHIT:   19357090  iMISS:    6132063  dACCESS:          0  dHIT:          0  dMISS:          0  itACCESS:          0  itHIT:          0  itMISS:          0  dtACCESS:          0  dtHIT:          0  dtMISS:          0
cpu0_L1I WRITE        ACCESS:          0  HIT:          0  MISS:          0  iACCESS:          0  iHIT:          0  iMISS:          0  dACCESS:          0  dHIT:          0  dMISS:          0  itACCESS:          0  itHIT:          0  itMISS:          0  dtACCESS:          0  dtHIT:          0  dtMISS:          0
cpu0_L1I TRANSLATION  ACCESS:          0  HIT:          0  MISS:          0  iACCESS:          0  iHIT:          0  iMISS:          0  dACCESS:          0  dHIT:          0  dMISS:          0  itACCESS:          0  itHIT:          0  itMISS:          0  dtACCESS:          0  dtHIT:          0  dtMISS:          0
cpu0_L1I PREFETCH  REQUESTED:   27635070  ISSUED:   27633253  CROSSED:          0  USEFUL:    1981812  USELESS:     655063
cpu0_L1I AVERAGE iMISS LATENCY: 19.1903 cycles
cpu0_L1I AVERAGE dMISS LATENCY: 0 cycles
cpu0_L1I AVERAGE itMISS LATENCY: 0 cycles
cpu0_L1I AVERAGE dtMISS LATENCY: 0 cycles
cpu0_L1I PAGE CROSSINGS (TLB HIT):         0 
cpu0_L1I PAGE CROSSINGS (TLB MISS):         0 
cpu0_L1I AVERAGE MISS LATENCY: 19.1903 cycles
cpu0_ITLB TOTAL       ACCESS:   29945151  HIT:   27996287  MISS:    1948864  iACCESS:   29945151  iHIT:   27996287  iMISS:    1948864  dACCESS:          0  dHIT:          0  dMISS:          0  itACCESS:          0  itHIT:          0  itMISS:          0  dtACCESS:          0  dtHIT:          0  dtMISS:          0
cpu0_ITLB LOAD         ACCESS:   29945151  HIT:   27996287  MISS:    1948864  iACCESS:   29945151  iHIT:   27996287  iMISS:    1948864  dACCESS:          0  dHIT:          0  dMISS:          0  itACCESS:          0  itHIT:          0  itMISS:          0  dtACCESS:          0  dtHIT:          0  dtMISS:          0
cpu0_ITLB RFO          ACCESS:          0  HIT:          0  MISS:          0  iACCESS:          0  iHIT:          0  iMISS:          0  dACCESS:          0  dHIT:          0  dMISS:          0  itACCESS:          0  itHIT:          0  itMISS:          0  dtACCESS:          0  dtHIT:          0  dtMISS:          0
cpu0_ITLB PREFETCH     ACCESS:          0  HIT:          0  MISS:          0  iACCESS:          0  iHIT:          0  iMISS:          0  dACCESS:          0  dHIT:          0  dMISS:          0  itACCESS:          0  itHIT:          0  itMISS:          0  dtACCESS:          0  dtHIT:          0  dtMISS:          0
cpu0_ITLB WRITE        ACCESS:          0  HIT:          0  MISS:          0  iACCESS:          0  iHIT:          0  iMISS:          0  dACCESS:          0  dHIT:          0  dMISS:          0  itACCESS:          0  itHIT:          0  itMISS:          0  dtACCESS:          0  dtHIT:          0  dtMISS:          0
cpu0_ITLB TRANSLATION  ACCESS:          0  HIT:          0  MISS:          0  iACCESS:          0  iHIT:          0  iMISS:          0  dACCESS:          0  dHIT:          0  dMISS:          0  itACCESS:          0  itHIT:          0  itMISS:          0  dtACCESS:          0  dtHIT:          0  dtMISS:          0
cpu0_ITLB PREFETCH  REQUESTED:          0  ISSUED:          0  CROSSED:          0  USEFUL:     332112  USELESS:      61384
cpu0_ITLB AVERAGE iMISS LATENCY: 3.73489 cycles
cpu0_ITLB AVERAGE dMISS LATENCY: 0 cycles
cpu0_ITLB AVERAGE itMISS LATENCY: 0 cycles
cpu0_ITLB AVERAGE dtMISS LATENCY: 0 cycles
cpu0_ITLB PAGE CROSSINGS (TLB HIT):         0 
cpu0_ITLB PAGE CROSSINGS (TLB MISS):         0 
cpu0_ITLB AVERAGE MISS LATENCY: 3.73489 cycles
cpu0_DTLB TOTAL       ACCESS:   28020519  HIT:   26236305  MISS:    1784214  iACCESS:          0  iHIT:          0  iMISS:          0  dACCESS:   28020519  dHIT:   26236305  dMISS:    1784214  itACCESS:          0  itHIT:          0  itMISS:          0  dtACCESS:          0  dtHIT:          0  dtMISS:          0
cpu0_DTLB LOAD         ACCESS:   28020519  HIT:   26236305  MISS:    1784214  iACCESS:          0  iHIT:          0  iMISS:          0  dACCESS:   28020519  dHIT:   26236305  dMISS:    1784214  itACCESS:          0  itHIT:          0  itMISS:          0  dtACCESS:          0  dtHIT:          0  dtMISS:          0
cpu0_DTLB RFO          ACCESS:          0  HIT:          0  MISS:          0  iACCESS:          0  iHIT:          0  iMISS:          0  dACCESS:          0  dHIT:          0  dMISS:          0  itACCESS:          0  itHIT:          0  itMISS:          0  dtACCESS:          0  dtHIT:          0  dtMISS:          0
cpu0_DTLB PREFETCH     ACCESS:          0  HIT:          0  MISS:          0  iACCESS:          0  iHIT:          0  iMISS:          0  dACCESS:          0  dHIT:          0  dMISS:          0  itACCESS:          0  itHIT:          0  itMISS:          0  dtACCESS:          0  dtHIT:          0  dtMISS:          0
cpu0_DTLB WRITE        ACCESS:          0  HIT:          0  MISS:          0  iACCESS:          0  iHIT:          0  iMISS:          0  dACCESS:          0  dHIT:          0  dMISS:          0  itACCESS:          0  itHIT:          0  itMISS:          0  dtACCESS:          0  dtHIT:          0  dtMISS:          0
cpu0_DTLB TRANSLATION  ACCESS:          0  HIT:          0  MISS:          0  iACCESS:          0  iHIT:          0  iMISS:          0  dACCESS:          0  dHIT:          0  dMISS:          0  itACCESS:          0  itHIT:          0  itMISS:          0  dtACCESS:          0  dtHIT:          0  dtMISS:          0
cpu0_DTLB PREFETCH  REQUESTED:          0  ISSUED:          0  CROSSED:          0  USEFUL:          0  USELESS:          0
cpu0_DTLB AVERAGE iMISS LATENCY: 0 cycles
cpu0_DTLB AVERAGE dMISS LATENCY: 10.7002 cycles
cpu0_DTLB AVERAGE itMISS LATENCY: 0 cycles
cpu0_DTLB AVERAGE dtMISS LATENCY: 0 cycles
cpu0_DTLB PAGE CROSSINGS (TLB HIT):         0 
cpu0_DTLB PAGE CROSSINGS (TLB MISS):         0 
cpu0_DTLB AVERAGE MISS LATENCY: 10.7002 cycles
cpu0_STLB TOTAL       ACCESS:    1541220  HIT:    1305335  MISS:     235885  iACCESS:     393516  iHIT:     304646  iMISS:      88870  dACCESS:    1147704  dHIT:    1000689  dMISS:     147015  itACCESS:          0  itHIT:          0  itMISS:          0  dtACCESS:          0  dtHIT:          0  dtMISS:          0
cpu0_STLB LOAD         ACCESS:    1541220  HIT:    1305335  MISS:     235885  iACCESS:     393516  iHIT:     304646  iMISS:      88870  dACCESS:    1147704  dHIT:    1000689  dMISS:     147015  itACCESS:          0  itHIT:          0  itMISS:          0  dtACCESS:          0  dtHIT:          0  dtMISS:          0
cpu0_STLB RFO          ACCESS:          0  HIT:          0  MISS:          0  iACCESS:          0  iHIT:          0  iMISS:          0  dACCESS:          0  dHIT:          0  dMISS:          0  itACCESS:          0  itHIT:          0  itMISS:          0  dtACCESS:          0  dtHIT:          0  dtMISS:          0
cpu0_STLB PREFETCH     ACCESS:          0  HIT:          0  MISS:          0  iACCESS:          0  iHIT:          0  iMISS:          0  dACCESS:          0  dHIT:          0  dMISS:          0  itACCESS:          0  itHIT:          0  itMISS:          0  dtACCESS:          0  dtHIT:          0  dtMISS:          0
cpu0_STLB WRITE        ACCESS:          0  HIT:          0  MISS:          0  iACCESS:          0  iHIT:          0  iMISS:          0  dACCESS:          0  dHIT:          0  dMISS:          0  itACCESS:          0  itHIT:          0  itMISS:          0  dtACCESS:          0  dtHIT:          0  dtMISS:          0
cpu0_STLB TRANSLATION  ACCESS:          0  HIT:          0  MISS:          0  iACCESS:          0  iHIT:          0  iMISS:          0  dACCESS:          0  dHIT:          0  dMISS:          0  itACCESS:          0  itHIT:          0  itMISS:          0  dtACCESS:          0  dtHIT:          0  dtMISS:          0
cpu0_STLB PREFETCH  REQUESTED:          0  ISSUED:          0  CROSSED:          0  USEFUL:          0  USELESS:          0
cpu0_STLB AVERAGE iMISS LATENCY: 17.5499 cycles
cpu0_STLB AVERAGE dMISS LATENCY: 42.0301 cycles
cpu0_STLB AVERAGE itMISS LATENCY: 0 cycles
cpu0_STLB AVERAGE dtMISS LATENCY: 0 cycles
cpu0_STLB PAGE CROSSINGS (TLB HIT):         0 
cpu0_STLB PAGE CROSSINGS (TLB MISS):         0 
cpu0_STLB AVERAGE MISS LATENCY: 59.5799 cycles
cpu0_L1D TOTAL       ACCESS:   42682676  HIT:   38466144  MISS:    4216532  iACCESS:          0  iHIT:          0  iMISS:          0  dACCESS:   42388938  dHIT:   38438546  dMISS:    3950392  itACCESS:      95330  itHIT:      15250  itMISS:      80080  dtACCESS:     198408  dtHIT:      12348  dtMISS:     186060
cpu0_L1D LOAD         ACCESS:   19434819  HIT:   17658080  MISS:    1776739  iACCESS:          0  iHIT:          0  iMISS:          0  dACCESS:   19434819  dHIT:   17658080  dMISS:    1776739  itACCESS:          0  itHIT:          0  itMISS:          0  dtACCESS:          0  dtHIT:          0  dtMISS:          0
cpu0_L1D RFO          ACCESS:          0  HIT:          0  MISS:          0  iACCESS:          0  iHIT:          0  iMISS:          0  dACCESS:          0  dHIT:          0  dMISS:          0  itACCESS:          0  itHIT:          0  itMISS:          0  dtACCESS:          0  dtHIT:          0  dtMISS:          0
cpu0_L1D PREFETCH     ACCESS:   12771683  HIT:   11112602  MISS:    1659081  iACCESS:          0  iHIT:          0  iMISS:          0  dACCESS:   12771683  dHIT:   11112602  dMISS:    1659081  itACCESS:          0  itHIT:          0  itMISS:          0  dtACCESS:          0  dtHIT:          0  dtMISS:          0
cpu0_L1D WRITE        ACCESS:   10182436  HIT:    9667864  MISS:     514572  iACCESS:          0  iHIT:          0  iMISS:          0  dACCESS:   10182436  dHIT:    9667864  dMISS:     514572  itACCESS:          0  itHIT:          0  itMISS:          0  dtACCESS:          0  dtHIT:          0  dtMISS:          0
cpu0_L1D TRANSLATION  ACCESS:     293738  HIT:      27598  MISS:     266140  iACCESS:          0  iHIT:          0  iMISS:          0  dACCESS:          0  dHIT:          0  dMISS:          0  itACCESS:      95330  itHIT:      15250  itMISS:      80080  dtACCESS:     198408  dtHIT:      12348  dtMISS:     186060
cpu0_L1D PREFETCH  REQUESTED:   19434819  ISSUED:   17301026  CROSSED:          0  USEFUL:     314198  USELESS:     710871
cpu0_L1D AVERAGE iMISS LATENCY: 0 cycles
cpu0_L1D AVERAGE dMISS LATENCY: 40.459 cycles
cpu0_L1D AVERAGE itMISS LATENCY: 0.800936 cycles
cpu0_L1D AVERAGE dtMISS LATENCY: 1.89591 cycles
cpu0_L1D PAGE CROSSINGS (TLB HIT):         0 
cpu0_L1D PAGE CROSSINGS (TLB MISS):         0 
cpu0_L1D AVERAGE MISS LATENCY: 43.1558 cycles
cpu0_L2C TOTAL       ACCESS:    7294197  HIT:    1285089  MISS:    6009108  iACCESS:    3362920  iHIT:     693014  iMISS:    2669906  dACCESS:    3667631  dHIT:     390211  dMISS:    3277420  itACCESS:      80080  itHIT:      60248  itMISS:      19832  dtACCESS:     183566  dtHIT:     141616  dtMISS:      41950
cpu0_L2C LOAD         ACCESS:    1720546  HIT:     132470  MISS:    1588076  iACCESS:     763212  iHIT:      93912  iMISS:     669300  dACCESS:     957334  dHIT:      38558  dMISS:     918776  itACCESS:          0  itHIT:          0  itMISS:          0  dtACCESS:          0  dtHIT:          0  dtMISS:          0
cpu0_L2C RFO          ACCESS:     167389  HIT:       8398  MISS:     158991  iACCESS:          0  iHIT:          0  iMISS:          0  dACCESS:     167389  dHIT:       8398  dMISS:     158991  itACCESS:          0  itHIT:          0  itMISS:          0  dtACCESS:          0  dtHIT:          0  dtMISS:          0
cpu0_L2C PREFETCH     ACCESS:    4864009  HIT:     881848  MISS:    3982161  iACCESS:    2599708  iHIT:     599102  iMISS:    2000606  dACCESS:    2264301  dHIT:     282746  dMISS:    1981555  itACCESS:          0  itHIT:          0  itMISS:          0  dtACCESS:          0  dtHIT:          0  dtMISS:          0
cpu0_L2C WRITE        ACCESS:     278607  HIT:      60509  MISS:     218098  iACCESS:          0  iHIT:          0  iMISS:          0  dACCESS:     278607  dHIT:      60509  dMISS:     218098  itACCESS:          0  itHIT:          0  itMISS:          0  dtACCESS:          0  dtHIT:          0  dtMISS:          0
cpu0_L2C TRANSLATION  ACCESS:     263646  HIT:     201864  MISS:      61782  iACCESS:          0  iHIT:          0  iMISS:          0  dACCESS:          0  dHIT:          0  dMISS:          0  itACCESS:      80080  itHIT:      60248  itMISS:      19832  dtACCESS:     183566  dtHIT:     141616  dtMISS:      41950
cpu0_L2C PREFETCH  REQUESTED:    1499007  ISSUED:    1498995  CROSSED:          0  USEFUL:     422566  USELESS:     448192
cpu0_L2C AVERAGE iMISS LATENCY: 22.0392 cycles
cpu0_L2C AVERAGE dMISS LATENCY: 36.0578 cycles
cpu0_L2C AVERAGE itMISS LATENCY: 0.438412 cycles
cpu0_L2C AVERAGE dtMISS LATENCY: 1.04744 cycles
cpu0_L2C PAGE CROSSINGS (TLB HIT):         0 
cpu0_L2C PAGE CROSSINGS (TLB MISS):         0 
cpu0_L2C AVERAGE MISS LATENCY: 59.5829 cycles
LLC TOTAL       ACCESS:    5858095  HIT:    4280591  MISS:    1577504  iACCESS:    2591732  iHIT:    2028623  iMISS:     563109  dACCESS:    3204581  dHIT:    2232469  dMISS:     972112  itACCESS:      19832  itHIT:       6925  itMISS:      12907  dtACCESS:      41950  dtHIT:      12574  dtMISS:      29376
LLC LOAD         ACCESS:    1582026  HIT:    1225049  MISS:     356977  iACCESS:     667699  iHIT:     552894  iMISS:     114805  dACCESS:     914327  dHIT:     672155  dMISS:     242172  itACCESS:          0  itHIT:          0  itMISS:          0  dtACCESS:          0  dtHIT:          0  dtMISS:          0
LLC RFO          ACCESS:     158989  HIT:      96229  MISS:      62760  iACCESS:          0  iHIT:          0  iMISS:          0  dACCESS:     158989  dHIT:      96229  dMISS:      62760  itACCESS:          0  itHIT:          0  itMISS:          0  dtACCESS:          0  dtHIT:          0  dtMISS:          0
LLC PREFETCH     ACCESS:    3802825  HIT:    2687343  MISS:    1115482  iACCESS:    1924033  iHIT:    1475729  iMISS:     448304  dACCESS:    1878792  dHIT:    1211614  dMISS:     667178  itACCESS:          0  itHIT:          0  itMISS:          0  dtACCESS:          0  dtHIT:          0  dtMISS:          0
LLC WRITE        ACCESS:     252473  HIT:     252471  MISS:          2  iACCESS:          0  iHIT:          0  iMISS:          0  dACCESS:     252473  dHIT:     252471  dMISS:          2  itACCESS:          0  itHIT:          0  itMISS:          0  dtACCESS:          0  dtHIT:          0  dtMISS:          0
LLC TRANSLATION  ACCESS:      61782  HIT:      19499  MISS:      42283  iACCESS:          0  iHIT:          0  iMISS:          0  dACCESS:          0  dHIT:          0  dMISS:          0  itACCESS:      19832  itHIT:       6925  itMISS:      12907  dtACCESS:      41950  dtHIT:      12574  dtMISS:      29376
LLC PREFETCH  REQUESTED:          0  ISSUED:          0  CROSSED:          0  USEFUL:          0  USELESS:          0
LLC AVERAGE iMISS LATENCY: 52.1365 cycles
LLC AVERAGE dMISS LATENCY: 101.981 cycles
LLC AVERAGE itMISS LATENCY: 1.4236 cycles
LLC AVERAGE dtMISS LATENCY: 3.46762 cycles
LLC PAGE CROSSINGS (TLB HIT):         0 
LLC PAGE CROSSINGS (TLB MISS):         0 
LLC AVERAGE MISS LATENCY: 159.009 cycles

PageTableWalker TOTAL       ACCESS:     116337  
PageTableWalker AVERAGE LATENCY: 3.79603 cycles
PageTableWalker TOTAL LATENCY: 441618 cycles

DRAM Statistics
Channel 0
 RQ ROW_BUFFER_HIT:     470996
  ROW_BUFFER_MISS:    1095374
 AVG DBUS CONGESTED CYCLE:     3.6429
 WQ ROW_BUFFER_HIT:      40169
  ROW_BUFFER_MISS:      38825  FULL:          0

