last_page:0x200000000000000
VMEM_RES_CAP:0x100000
PAGE_SIZE:4096
LOG2_PAGE_SIZE:12
LOG2_PAGE_TABLE_SIZE:9
page_table_levels:5
WARNING: physical memory size is smaller than virtual memory size
FDiP enabled with aggresivity 16

*** ChampSim Multicore Out-of-Order Simulator ***

Warmup Instructions: 50000000
Simulation Instructions: 100000000
Number of CPUs: 1
Small page size: 4096
Large page size: 2097152

CPU 0 Bimodal branch predictor
Basic BTB sets: 1024 ways: 8 indirect buffer size: 4096 RAS size: 64
Instruction page size distrubution: 0
Loading instruction page size distribution from /home/bsc/bsc018186/scratch/itp_asplos25_AE/dump/srv704_ap.pdst
Data page size distrubution: 0
Loading data page size distribution from /home/bsc/bsc018186/scratch/itp_asplos25_AE/dump/srv704_ap.pdst
cpu0_L2C IP-based stride prefetcher
cpu0_L1D next line prefetcher
cpu0_STLB using iTP with max lru@8
cpu0_STLB using iTP with instr@0 and data@2
Init sat counter with 3 bits (max:50).
cpu0_L1I next line prefetcher
Off-chip DRAM Size: 4 GiB Channels: 1 Width: 64-bit Data Rate: 3200 MT/s
Heartbeat CPU 0 instructions: 10000001 cycles: 2500196 heartbeat IPC: 3.99969 cumulative IPC: 3.99969 (Simulation time: 0 hr 0 min 37 sec) 
Heartbeat CPU 0 instructions: 20000003 cycles: 5000222 heartbeat IPC: 3.99996 cumulative IPC: 3.99983 (Simulation time: 0 hr 1 min 17 sec) 
Heartbeat CPU 0 instructions: 30000003 cycles: 7500247 heartbeat IPC: 3.99997 cumulative IPC: 3.99987 (Simulation time: 0 hr 1 min 57 sec) 
Heartbeat CPU 0 instructions: 40000002 cycles: 10000262 heartbeat IPC: 3.99998 cumulative IPC: 3.9999 (Simulation time: 0 hr 2 min 37 sec) 
Heartbeat CPU 0 instructions: 50000001 cycles: 12500322 heartbeat IPC: 3.99991 cumulative IPC: 3.9999 (Simulation time: 0 hr 3 min 18 sec) 
Warmup finished CPU 0 instructions: 50000001 cycles: 12500323 cumulative IPC: 3.9999 (Simulation time: 0 hr 3 min 18 sec) 

Warmup complete CPU 0 instructions: 50000001 cycles: 12500323 (Simulation time: 0 hr 3 min 18 sec) 

Heartbeat CPU 0 instructions: 60000001 cycles: 25985329 heartbeat IPC: 0.741565 cumulative IPC: 0.741565 (Simulation time: 0 hr 4 min 22 sec) 
Heartbeat CPU 0 instructions: 70000004 cycles: 32657897 heartbeat IPC: 1.49868 cumulative IPC: 0.992184 (Simulation time: 0 hr 5 min 19 sec) 
Heartbeat CPU 0 instructions: 80000000 cycles: 46325032 heartbeat IPC: 0.731682 cumulative IPC: 0.886926 (Simulation time: 0 hr 6 min 24 sec) 
Heartbeat CPU 0 instructions: 90000003 cycles: 60898598 heartbeat IPC: 0.686175 cumulative IPC: 0.826476 (Simulation time: 0 hr 7 min 30 sec) 
Heartbeat CPU 0 instructions: 100000001 cycles: 74977482 heartbeat IPC: 0.710284 cumulative IPC: 0.800293 (Simulation time: 0 hr 8 min 36 sec) 
*** Reached end of trace: /gpfs/projects/bsc18/MN4/bsc18/romol/ChampSim/traces/qualcomm_srv/srv704_ap.champsimtrace.xz
Heartbeat CPU 0 instructions: 110000002 cycles: 89844708 heartbeat IPC: 0.672621 cumulative IPC: 0.775752 (Simulation time: 0 hr 9 min 42 sec) 
Heartbeat CPU 0 instructions: 120000004 cycles: 104531184 heartbeat IPC: 0.680899 cumulative IPC: 0.760615 (Simulation time: 0 hr 10 min 47 sec) 
Heartbeat CPU 0 instructions: 130000001 cycles: 118787076 heartbeat IPC: 0.701465 cumulative IPC: 0.752681 (Simulation time: 0 hr 11 min 52 sec) 
Heartbeat CPU 0 instructions: 140000001 cycles: 132776104 heartbeat IPC: 0.714846 cumulative IPC: 0.748281 (Simulation time: 0 hr 12 min 56 sec) 
Heartbeat CPU 0 instructions: 150000003 cycles: 147294188 heartbeat IPC: 0.688797 cumulative IPC: 0.741874 (Simulation time: 0 hr 14 min 1 sec) 
Simulation finished CPU 0 instructions: 100000002 cycles: 134793866 cumulative IPC: 0.741874 (Simulation time: 0 hr 14 min 1 sec) 

Simulation complete CPU 0 instructions: 100000002 cycles: 134793866 (Simulation time: 0 hr 14 min 1 sec) 


ChampSim completed all CPUs

Saving instructions large page distribution to /home/bsc/bsc018186/scratch/itp_asplos25_AE/dump/srv704_ap.pdst...
Saving data large page distribution to /home/bsc/bsc018186/scratch/itp_asplos25_AE/dump/srv704_ap.pdst...
=== Simulation ===
CPU 0 runs /gpfs/projects/bsc18/MN4/bsc18/romol/ChampSim/traces/qualcomm_srv/srv704_ap.champsimtrace.xz

Region of Interest Statistics

CPU 0 cumulative IPC: 0.741874 instructions: 100000002 cycles: 134793866
CPU 0 Branch Prediction Accuracy: 85.2402% MPKI: 28.2805 Average ROB Occupancy at Mispredict: 13.7247
Branch type MPKI
BRANCH_DIRECT_JUMP: 0.94631
BRANCH_INDIRECT: 14.5697
BRANCH_CONDITIONAL: 9.29308
BRANCH_DIRECT_CALL: 1.7075
BRANCH_INDIRECT_CALL: 0.53942
BRANCH_RETURN: 1.22449

Instructions large pages: 0
Instructions small pages: 10107
Large page distribution for instructions: 0%

Data large pages: 0
Data small pages: 9080
Large page distribution for data: 0%

cpu0_L1I TOTAL       ACCESS:   34794423  HIT:   27268229  MISS:    7526194  iACCESS:   34794423  iHIT:   27268229  iMISS:    7526194  dACCESS:          0  dHIT:          0  dMISS:          0  itACCESS:          0  itHIT:          0  itMISS:          0  dtACCESS:          0  dtHIT:          0  dtMISS:          0
cpu0_L1I LOAD         ACCESS:    9430765  HIT:    7329890  MISS:    2100875  iACCESS:    9430765  iHIT:    7329890  iMISS:    2100875  dACCESS:          0  dHIT:          0  dMISS:          0  itACCESS:          0  itHIT:          0  itMISS:          0  dtACCESS:          0  dtHIT:          0  dtMISS:          0
cpu0_L1I RFO          ACCESS:          0  HIT:          0  MISS:          0  iACCESS:          0  iHIT:          0  iMISS:          0  dACCESS:          0  dHIT:          0  dMISS:          0  itACCESS:          0  itHIT:          0  itMISS:          0  dtACCESS:          0  dtHIT:          0  dtMISS:          0
cpu0_L1I PREFETCH     ACCESS:   25363658  HIT:   19938339  MISS:    5425319  iACCESS:   25363658  iHIT:   19938339  iMISS:    5425319  dACCESS:          0  dHIT:          0  dMISS:          0  itACCESS:          0  itHIT:          0  itMISS:          0  dtACCESS:          0  dtHIT:          0  dtMISS:          0
cpu0_L1I WRITE        ACCESS:          0  HIT:          0  MISS:          0  iACCESS:          0  iHIT:          0  iMISS:          0  dACCESS:          0  dHIT:          0  dMISS:          0  itACCESS:          0  itHIT:          0  itMISS:          0  dtACCESS:          0  dtHIT:          0  dtMISS:          0
cpu0_L1I TRANSLATION  ACCESS:          0  HIT:          0  MISS:          0  iACCESS:          0  iHIT:          0  iMISS:          0  dACCESS:          0  dHIT:          0  dMISS:          0  itACCESS:          0  itHIT:          0  itMISS:          0  dtACCESS:          0  dtHIT:          0  dtMISS:          0
cpu0_L1I PREFETCH  REQUESTED:   27425903  ISSUED:   27423953  CROSSED:          0  USEFUL:    1733431  USELESS:     560777
cpu0_L1I AVERAGE iMISS LATENCY: 13.7022 cycles
cpu0_L1I AVERAGE dMISS LATENCY: 0 cycles
cpu0_L1I AVERAGE itMISS LATENCY: 0 cycles
cpu0_L1I AVERAGE dtMISS LATENCY: 0 cycles
cpu0_L1I PAGE CROSSINGS (TLB HIT):         0 
cpu0_L1I PAGE CROSSINGS (TLB MISS):         0 
cpu0_L1I AVERAGE MISS LATENCY: 13.7022 cycles
cpu0_ITLB TOTAL       ACCESS:   28855108  HIT:   27137347  MISS:    1717761  iACCESS:   28855108  iHIT:   27137347  iMISS:    1717761  dACCESS:          0  dHIT:          0  dMISS:          0  itACCESS:          0  itHIT:          0  itMISS:          0  dtACCESS:          0  dtHIT:          0  dtMISS:          0
cpu0_ITLB LOAD         ACCESS:   28855108  HIT:   27137347  MISS:    1717761  iACCESS:   28855108  iHIT:   27137347  iMISS:    1717761  dACCESS:          0  dHIT:          0  dMISS:          0  itACCESS:          0  itHIT:          0  itMISS:          0  dtACCESS:          0  dtHIT:          0  dtMISS:          0
cpu0_ITLB RFO          ACCESS:          0  HIT:          0  MISS:          0  iACCESS:          0  iHIT:          0  iMISS:          0  dACCESS:          0  dHIT:          0  dMISS:          0  itACCESS:          0  itHIT:          0  itMISS:          0  dtACCESS:          0  dtHIT:          0  dtMISS:          0
cpu0_ITLB PREFETCH     ACCESS:          0  HIT:          0  MISS:          0  iACCESS:          0  iHIT:          0  iMISS:          0  dACCESS:          0  dHIT:          0  dMISS:          0  itACCESS:          0  itHIT:          0  itMISS:          0  dtACCESS:          0  dtHIT:          0  dtMISS:          0
cpu0_ITLB WRITE        ACCESS:          0  HIT:          0  MISS:          0  iACCESS:          0  iHIT:          0  iMISS:          0  dACCESS:          0  dHIT:          0  dMISS:          0  itACCESS:          0  itHIT:          0  itMISS:          0  dtACCESS:          0  dtHIT:          0  dtMISS:          0
cpu0_ITLB TRANSLATION  ACCESS:          0  HIT:          0  MISS:          0  iACCESS:          0  iHIT:          0  iMISS:          0  dACCESS:          0  dHIT:          0  dMISS:          0  itACCESS:          0  itHIT:          0  itMISS:          0  dtACCESS:          0  dtHIT:          0  dtMISS:          0
cpu0_ITLB PREFETCH  REQUESTED:          0  ISSUED:          0  CROSSED:          0  USEFUL:     282509  USELESS:      56915
cpu0_ITLB AVERAGE iMISS LATENCY: 2.05703 cycles
cpu0_ITLB AVERAGE dMISS LATENCY: 0 cycles
cpu0_ITLB AVERAGE itMISS LATENCY: 0 cycles
cpu0_ITLB AVERAGE dtMISS LATENCY: 0 cycles
cpu0_ITLB PAGE CROSSINGS (TLB HIT):         0 
cpu0_ITLB PAGE CROSSINGS (TLB MISS):         0 
cpu0_ITLB AVERAGE MISS LATENCY: 2.05703 cycles
cpu0_DTLB TOTAL       ACCESS:   29481810  HIT:   25170077  MISS:    4311733  iACCESS:          0  iHIT:          0  iMISS:          0  dACCESS:   29481810  dHIT:   25170077  dMISS:    4311733  itACCESS:          0  itHIT:          0  itMISS:          0  dtACCESS:          0  dtHIT:          0  dtMISS:          0
cpu0_DTLB LOAD         ACCESS:   29481810  HIT:   25170077  MISS:    4311733  iACCESS:          0  iHIT:          0  iMISS:          0  dACCESS:   29481810  dHIT:   25170077  dMISS:    4311733  itACCESS:          0  itHIT:          0  itMISS:          0  dtACCESS:          0  dtHIT:          0  dtMISS:          0
cpu0_DTLB RFO          ACCESS:          0  HIT:          0  MISS:          0  iACCESS:          0  iHIT:          0  iMISS:          0  dACCESS:          0  dHIT:          0  dMISS:          0  itACCESS:          0  itHIT:          0  itMISS:          0  dtACCESS:          0  dtHIT:          0  dtMISS:          0
cpu0_DTLB PREFETCH     ACCESS:          0  HIT:          0  MISS:          0  iACCESS:          0  iHIT:          0  iMISS:          0  dACCESS:          0  dHIT:          0  dMISS:          0  itACCESS:          0  itHIT:          0  itMISS:          0  dtACCESS:          0  dtHIT:          0  dtMISS:          0
cpu0_DTLB WRITE        ACCESS:          0  HIT:          0  MISS:          0  iACCESS:          0  iHIT:          0  iMISS:          0  dACCESS:          0  dHIT:          0  dMISS:          0  itACCESS:          0  itHIT:          0  itMISS:          0  dtACCESS:          0  dtHIT:          0  dtMISS:          0
cpu0_DTLB TRANSLATION  ACCESS:          0  HIT:          0  MISS:          0  iACCESS:          0  iHIT:          0  iMISS:          0  dACCESS:          0  dHIT:          0  dMISS:          0  itACCESS:          0  itHIT:          0  itMISS:          0  dtACCESS:          0  dtHIT:          0  dtMISS:          0
cpu0_DTLB PREFETCH  REQUESTED:          0  ISSUED:          0  CROSSED:          0  USEFUL:          0  USELESS:          0
cpu0_DTLB AVERAGE iMISS LATENCY: 0 cycles
cpu0_DTLB AVERAGE dMISS LATENCY: 7.06435 cycles
cpu0_DTLB AVERAGE itMISS LATENCY: 0 cycles
cpu0_DTLB AVERAGE dtMISS LATENCY: 0 cycles
cpu0_DTLB PAGE CROSSINGS (TLB HIT):         0 
cpu0_DTLB PAGE CROSSINGS (TLB MISS):         0 
cpu0_DTLB AVERAGE MISS LATENCY: 7.06435 cycles
cpu0_STLB TOTAL       ACCESS:    2572688  HIT:    2438518  MISS:     134170  iACCESS:     339449  iHIT:     329525  iMISS:       9924  dACCESS:    2233239  dHIT:    2108993  dMISS:     124246  itACCESS:          0  itHIT:          0  itMISS:          0  dtACCESS:          0  dtHIT:          0  dtMISS:          0
cpu0_STLB LOAD         ACCESS:    2572688  HIT:    2438518  MISS:     134170  iACCESS:     339449  iHIT:     329525  iMISS:       9924  dACCESS:    2233239  dHIT:    2108993  dMISS:     124246  itACCESS:          0  itHIT:          0  itMISS:          0  dtACCESS:          0  dtHIT:          0  dtMISS:          0
cpu0_STLB RFO          ACCESS:          0  HIT:          0  MISS:          0  iACCESS:          0  iHIT:          0  iMISS:          0  dACCESS:          0  dHIT:          0  dMISS:          0  itACCESS:          0  itHIT:          0  itMISS:          0  dtACCESS:          0  dtHIT:          0  dtMISS:          0
cpu0_STLB PREFETCH     ACCESS:          0  HIT:          0  MISS:          0  iACCESS:          0  iHIT:          0  iMISS:          0  dACCESS:          0  dHIT:          0  dMISS:          0  itACCESS:          0  itHIT:          0  itMISS:          0  dtACCESS:          0  dtHIT:          0  dtMISS:          0
cpu0_STLB WRITE        ACCESS:          0  HIT:          0  MISS:          0  iACCESS:          0  iHIT:          0  iMISS:          0  dACCESS:          0  dHIT:          0  dMISS:          0  itACCESS:          0  itHIT:          0  itMISS:          0  dtACCESS:          0  dtHIT:          0  dtMISS:          0
cpu0_STLB TRANSLATION  ACCESS:          0  HIT:          0  MISS:          0  iACCESS:          0  iHIT:          0  iMISS:          0  dACCESS:          0  dHIT:          0  dMISS:          0  itACCESS:          0  itHIT:          0  itMISS:          0  dtACCESS:          0  dtHIT:          0  dtMISS:          0
cpu0_STLB PREFETCH  REQUESTED:          0  ISSUED:          0  CROSSED:          0  USEFUL:          0  USELESS:          0
cpu0_STLB AVERAGE iMISS LATENCY: 6.70174 cycles
cpu0_STLB AVERAGE dMISS LATENCY: 92.7922 cycles
cpu0_STLB AVERAGE itMISS LATENCY: 0 cycles
cpu0_STLB AVERAGE dtMISS LATENCY: 0 cycles
cpu0_STLB PAGE CROSSINGS (TLB HIT):         0 
cpu0_STLB PAGE CROSSINGS (TLB MISS):         0 
cpu0_STLB AVERAGE MISS LATENCY: 99.494 cycles
cpu0_L1D TOTAL       ACCESS:   44261159  HIT:   38611237  MISS:    5649922  iACCESS:          0  iHIT:          0  iMISS:          0  dACCESS:   44060351  dHIT:   38598373  dMISS:    5461978  itACCESS:      11438  itHIT:       1300  itMISS:      10138  dtACCESS:     189370  dtHIT:      11564  dtMISS:     177806
cpu0_L1D LOAD         ACCESS:   21405665  HIT:   18151715  MISS:    3253950  iACCESS:          0  iHIT:          0  iMISS:          0  dACCESS:   21405665  dHIT:   18151715  dMISS:    3253950  itACCESS:          0  itHIT:          0  itMISS:          0  dtACCESS:          0  dtHIT:          0  dtMISS:          0
cpu0_L1D RFO          ACCESS:          0  HIT:          0  MISS:          0  iACCESS:          0  iHIT:          0  iMISS:          0  dACCESS:          0  dHIT:          0  dMISS:          0  itACCESS:          0  itHIT:          0  itMISS:          0  dtACCESS:          0  dtHIT:          0  dtMISS:          0
cpu0_L1D PREFETCH     ACCESS:   12838668  HIT:   11036981  MISS:    1801687  iACCESS:          0  iHIT:          0  iMISS:          0  dACCESS:   12838668  dHIT:   11036981  dMISS:    1801687  itACCESS:          0  itHIT:          0  itMISS:          0  dtACCESS:          0  dtHIT:          0  dtMISS:          0
cpu0_L1D WRITE        ACCESS:    9816018  HIT:    9409677  MISS:     406341  iACCESS:          0  iHIT:          0  iMISS:          0  dACCESS:    9816018  dHIT:    9409677  dMISS:     406341  itACCESS:          0  itHIT:          0  itMISS:          0  dtACCESS:          0  dtHIT:          0  dtMISS:          0
cpu0_L1D TRANSLATION  ACCESS:     200808  HIT:      12864  MISS:     187944  iACCESS:          0  iHIT:          0  iMISS:          0  dACCESS:          0  dHIT:          0  dMISS:          0  itACCESS:      11438  itHIT:       1300  itMISS:      10138  dtACCESS:     189370  dtHIT:      11564  dtMISS:     177806
cpu0_L1D PREFETCH  REQUESTED:   21405665  ISSUED:   17209518  CROSSED:          0  USEFUL:     274678  USELESS:     704301
cpu0_L1D AVERAGE iMISS LATENCY: 0 cycles
cpu0_L1D AVERAGE dMISS LATENCY: 23.881 cycles
cpu0_L1D AVERAGE itMISS LATENCY: 0.13793 cycles
cpu0_L1D AVERAGE dtMISS LATENCY: 1.77949 cycles
cpu0_L1D PAGE CROSSINGS (TLB HIT):         0 
cpu0_L1D PAGE CROSSINGS (TLB MISS):         0 
cpu0_L1D AVERAGE MISS LATENCY: 25.7984 cycles
cpu0_L2C TOTAL       ACCESS:    7776059  HIT:    2322337  MISS:    5453722  iACCESS:    2951220  iHIT:     739325  iMISS:    2211895  dACCESS:    4649472  dHIT:    1489957  dMISS:    3159515  itACCESS:      10138  itHIT:       5270  itMISS:       4868  dtACCESS:     165229  dtHIT:      87785  dtMISS:      77444
cpu0_L2C LOAD         ACCESS:    2922465  HIT:    1026439  MISS:    1896026  iACCESS:     690870  iHIT:     116821  iMISS:     574049  dACCESS:    2231595  dHIT:     909618  dMISS:    1321977  itACCESS:          0  itHIT:          0  itMISS:          0  dtACCESS:          0  dtHIT:          0  dtMISS:          0
cpu0_L2C RFO          ACCESS:     162703  HIT:      60547  MISS:     102156  iACCESS:          0  iHIT:          0  iMISS:          0  dACCESS:     162703  dHIT:      60547  dMISS:     102156  itACCESS:          0  itHIT:          0  itMISS:          0  dtACCESS:          0  dtHIT:          0  dtMISS:          0
cpu0_L2C PREFETCH     ACCESS:    4262791  HIT:    1014707  MISS:    3248084  iACCESS:    2260350  iHIT:     622504  iMISS:    1637846  dACCESS:    2002441  dHIT:     392203  dMISS:    1610238  itACCESS:          0  itHIT:          0  itMISS:          0  dtACCESS:          0  dtHIT:          0  dtMISS:          0
cpu0_L2C WRITE        ACCESS:     252733  HIT:     127589  MISS:     125144  iACCESS:          0  iHIT:          0  iMISS:          0  dACCESS:     252733  dHIT:     127589  dMISS:     125144  itACCESS:          0  itHIT:          0  itMISS:          0  dtACCESS:          0  dtHIT:          0  dtMISS:          0
cpu0_L2C TRANSLATION  ACCESS:     175367  HIT:      93055  MISS:      82312  iACCESS:          0  iHIT:          0  iMISS:          0  dACCESS:          0  dHIT:          0  dMISS:          0  itACCESS:      10138  itHIT:       5270  itMISS:       4868  dtACCESS:     165229  dtHIT:      87785  dtMISS:      77444
cpu0_L2C PREFETCH  REQUESTED:    1254838  ISSUED:    1254838  CROSSED:          0  USEFUL:     369523  USELESS:     340683
cpu0_L2C AVERAGE iMISS LATENCY: 13.8476 cycles
cpu0_L2C AVERAGE dMISS LATENCY: 25.3209 cycles
cpu0_L2C AVERAGE itMISS LATENCY: 0.125221 cycles
cpu0_L2C AVERAGE dtMISS LATENCY: 1.55496 cycles
cpu0_L2C PAGE CROSSINGS (TLB HIT):         0 
cpu0_L2C PAGE CROSSINGS (TLB MISS):         0 
cpu0_L2C AVERAGE MISS LATENCY: 40.8487 cycles
LLC TOTAL       ACCESS:    5340814  HIT:    4560570  MISS:     780244  iACCESS:    2161947  iHIT:    1929170  iMISS:     232777  dACCESS:    3096555  dHIT:    2591268  dMISS:     505287  itACCESS:       4868  itHIT:       1514  itMISS:       3354  dtACCESS:      77444  dtHIT:      38618  dtMISS:      38826
LLC LOAD         ACCESS:    1893557  HIT:    1723102  MISS:     170455  iACCESS:     572675  iHIT:     524495  iMISS:      48180  dACCESS:    1320882  dHIT:    1198607  dMISS:     122275  itACCESS:          0  itHIT:          0  itMISS:          0  dtACCESS:          0  dtHIT:          0  dtMISS:          0
LLC RFO          ACCESS:     102155  HIT:      70643  MISS:      31512  iACCESS:          0  iHIT:          0  iMISS:          0  dACCESS:     102155  dHIT:      70643  dMISS:      31512  itACCESS:          0  itHIT:          0  itMISS:          0  dtACCESS:          0  dtHIT:          0  dtMISS:          0
LLC PREFETCH     ACCESS:    3148395  HIT:    2620908  MISS:     527487  iACCESS:    1589272  iHIT:    1404675  iMISS:     184597  dACCESS:    1559123  dHIT:    1216233  dMISS:     342890  itACCESS:          0  itHIT:          0  itMISS:          0  dtACCESS:          0  dtHIT:          0  dtMISS:          0
LLC WRITE        ACCESS:     114395  HIT:     105785  MISS:       8610  iACCESS:          0  iHIT:          0  iMISS:          0  dACCESS:     114395  dHIT:     105785  dMISS:       8610  itACCESS:          0  itHIT:          0  itMISS:          0  dtACCESS:          0  dtHIT:          0  dtMISS:          0
LLC TRANSLATION  ACCESS:      82312  HIT:      40132  MISS:      42180  iACCESS:          0  iHIT:          0  iMISS:          0  dACCESS:          0  dHIT:          0  dMISS:          0  itACCESS:       4868  itHIT:       1514  itMISS:       3354  dtACCESS:      77444  dtHIT:      38618  dtMISS:      38826
LLC PREFETCH  REQUESTED:          0  ISSUED:          0  CROSSED:          0  USEFUL:          0  USELESS:          0
LLC AVERAGE iMISS LATENCY: 43.3128 cycles
LLC AVERAGE dMISS LATENCY: 103.178 cycles
LLC AVERAGE itMISS LATENCY: 0.752761 cycles
LLC AVERAGE dtMISS LATENCY: 8.93434 cycles
LLC PAGE CROSSINGS (TLB HIT):         0 
LLC PAGE CROSSINGS (TLB MISS):         0 
LLC AVERAGE MISS LATENCY: 156.178 cycles

PageTableWalker TOTAL       ACCESS:      75525  
PageTableWalker AVERAGE LATENCY: 5.05785 cycles
PageTableWalker TOTAL LATENCY: 381994 cycles

DRAM Statistics
Channel 0
 RQ ROW_BUFFER_HIT:     227669
  ROW_BUFFER_MISS:     543246
 AVG DBUS CONGESTED CYCLE:    3.63893
 WQ ROW_BUFFER_HIT:      14070
  ROW_BUFFER_MISS:      18796  FULL:          0

