last_page:0x200000000000000
VMEM_RES_CAP:0x100000
PAGE_SIZE:4096
LOG2_PAGE_SIZE:12
LOG2_PAGE_TABLE_SIZE:9
page_table_levels:5
WARNING: physical memory size is smaller than virtual memory size
FDiP enabled with aggresivity 16

*** ChampSim Multicore Out-of-Order Simulator ***

Warmup Instructions: 50000000
Simulation Instructions: 100000000
Number of CPUs: 1
Small page size: 4096
Large page size: 2097152

CPU 0 Bimodal branch predictor
Basic BTB sets: 1024 ways: 8 indirect buffer size: 4096 RAS size: 64
Instruction page size distrubution: 0
Loading instruction page size distribution from /home/bsc/bsc018186/scratch/itp_asplos25_AE/dump/srv706_ap.pdst
Data page size distrubution: 0
Loading data page size distribution from /home/bsc/bsc018186/scratch/itp_asplos25_AE/dump/srv706_ap.pdst
cpu0_L2C IP-based stride prefetcher
cpu0_L1D next line prefetcher
cpu0_STLB using iTP with max lru@8
cpu0_STLB using iTP with instr@0 and data@2
Init sat counter with 3 bits (max:50).
cpu0_L1I next line prefetcher
Off-chip DRAM Size: 4 GiB Channels: 1 Width: 64-bit Data Rate: 3200 MT/s
Heartbeat CPU 0 instructions: 10000003 cycles: 2500216 heartbeat IPC: 3.99966 cumulative IPC: 3.99966 (Simulation time: 0 hr 0 min 38 sec) 
Heartbeat CPU 0 instructions: 20000001 cycles: 5000249 heartbeat IPC: 3.99995 cumulative IPC: 3.99981 (Simulation time: 0 hr 1 min 18 sec) 
Heartbeat CPU 0 instructions: 30000001 cycles: 7500270 heartbeat IPC: 3.99997 cumulative IPC: 3.99986 (Simulation time: 0 hr 1 min 58 sec) 
Heartbeat CPU 0 instructions: 40000002 cycles: 10000280 heartbeat IPC: 3.99999 cumulative IPC: 3.99989 (Simulation time: 0 hr 2 min 39 sec) 
Heartbeat CPU 0 instructions: 50000003 cycles: 12500350 heartbeat IPC: 3.99989 cumulative IPC: 3.99989 (Simulation time: 0 hr 3 min 19 sec) 
Warmup finished CPU 0 instructions: 50000003 cycles: 12500351 cumulative IPC: 3.99989 (Simulation time: 0 hr 3 min 19 sec) 

Warmup complete CPU 0 instructions: 50000003 cycles: 12500351 (Simulation time: 0 hr 3 min 19 sec) 

Heartbeat CPU 0 instructions: 60000003 cycles: 32952022 heartbeat IPC: 0.488958 cumulative IPC: 0.488958 (Simulation time: 0 hr 4 min 32 sec) 
Heartbeat CPU 0 instructions: 70000004 cycles: 54156190 heartbeat IPC: 0.471606 cumulative IPC: 0.480125 (Simulation time: 0 hr 5 min 44 sec) 
Heartbeat CPU 0 instructions: 80000000 cycles: 74716129 heartbeat IPC: 0.486383 cumulative IPC: 0.482193 (Simulation time: 0 hr 6 min 55 sec) 
Heartbeat CPU 0 instructions: 90000002 cycles: 82915310 heartbeat IPC: 1.21964 cumulative IPC: 0.568062 (Simulation time: 0 hr 7 min 50 sec) 
Heartbeat CPU 0 instructions: 100000000 cycles: 100479680 heartbeat IPC: 0.569335 cumulative IPC: 0.568316 (Simulation time: 0 hr 8 min 57 sec) 
*** Reached end of trace: /gpfs/projects/bsc18/MN4/bsc18/romol/ChampSim/traces/qualcomm_srv/srv706_ap.champsimtrace.xz
Heartbeat CPU 0 instructions: 110000002 cycles: 121181346 heartbeat IPC: 0.483054 cumulative IPC: 0.552075 (Simulation time: 0 hr 10 min 8 sec) 
Heartbeat CPU 0 instructions: 120000001 cycles: 141337833 heartbeat IPC: 0.496119 cumulative IPC: 0.543321 (Simulation time: 0 hr 11 min 18 sec) 
Heartbeat CPU 0 instructions: 130000003 cycles: 161662099 heartbeat IPC: 0.492023 cumulative IPC: 0.536331 (Simulation time: 0 hr 12 min 29 sec) 
Heartbeat CPU 0 instructions: 140000004 cycles: 182768058 heartbeat IPC: 0.4738 cumulative IPC: 0.52858 (Simulation time: 0 hr 13 min 39 sec) 
Heartbeat CPU 0 instructions: 150000000 cycles: 203552676 heartbeat IPC: 0.481125 cumulative IPC: 0.523417 (Simulation time: 0 hr 14 min 49 sec) 
Simulation finished CPU 0 instructions: 100000000 cycles: 191052328 cumulative IPC: 0.523417 (Simulation time: 0 hr 14 min 49 sec) 

Simulation complete CPU 0 instructions: 100000000 cycles: 191052328 (Simulation time: 0 hr 14 min 49 sec) 


ChampSim completed all CPUs

Saving instructions large page distribution to /home/bsc/bsc018186/scratch/itp_asplos25_AE/dump/srv706_ap.pdst...
Saving data large page distribution to /home/bsc/bsc018186/scratch/itp_asplos25_AE/dump/srv706_ap.pdst...
=== Simulation ===
CPU 0 runs /gpfs/projects/bsc18/MN4/bsc18/romol/ChampSim/traces/qualcomm_srv/srv706_ap.champsimtrace.xz

Region of Interest Statistics

CPU 0 cumulative IPC: 0.523417 instructions: 100000000 cycles: 191052328
CPU 0 Branch Prediction Accuracy: 82.8794% MPKI: 33.1204 Average ROB Occupancy at Mispredict: 12.5043
Branch type MPKI
BRANCH_DIRECT_JUMP: 1.18695
BRANCH_INDIRECT: 16.8781
BRANCH_CONDITIONAL: 10.5778
BRANCH_DIRECT_CALL: 2.23178
BRANCH_INDIRECT_CALL: 0.686421
BRANCH_RETURN: 1.55946

Instructions large pages: 0
Instructions small pages: 6481
Large page distribution for instructions: 0%

Data large pages: 0
Data small pages: 5344
Large page distribution for data: 0%

cpu0_L1I TOTAL       ACCESS:   34640619  HIT:   27637094  MISS:    7003525  iACCESS:   34640619  iHIT:   27637094  iMISS:    7003525  dACCESS:          0  dHIT:          0  dMISS:          0  itACCESS:          0  itHIT:          0  itMISS:          0  dtACCESS:          0  dtHIT:          0  dtMISS:          0
cpu0_L1I LOAD         ACCESS:    9208340  HIT:    7288209  MISS:    1920131  iACCESS:    9208340  iHIT:    7288209  iMISS:    1920131  dACCESS:          0  dHIT:          0  dMISS:          0  itACCESS:          0  itHIT:          0  itMISS:          0  dtACCESS:          0  dtHIT:          0  dtMISS:          0
cpu0_L1I RFO          ACCESS:          0  HIT:          0  MISS:          0  iACCESS:          0  iHIT:          0  iMISS:          0  dACCESS:          0  dHIT:          0  dMISS:          0  itACCESS:          0  itHIT:          0  itMISS:          0  dtACCESS:          0  dtHIT:          0  dtMISS:          0
cpu0_L1I PREFETCH     ACCESS:   25432279  HIT:   20348885  MISS:    5083394  iACCESS:   25432279  iHIT:   20348885  iMISS:    5083394  dACCESS:          0  dHIT:          0  dMISS:          0  itACCESS:          0  itHIT:          0  itMISS:          0  dtACCESS:          0  dtHIT:          0  dtMISS:          0
cpu0_L1I WRITE        ACCESS:          0  HIT:          0  MISS:          0  iACCESS:          0  iHIT:          0  iMISS:          0  dACCESS:          0  dHIT:          0  dMISS:          0  itACCESS:          0  itHIT:          0  itMISS:          0  dtACCESS:          0  dtHIT:          0  dtMISS:          0
cpu0_L1I TRANSLATION  ACCESS:          0  HIT:          0  MISS:          0  iACCESS:          0  iHIT:          0  iMISS:          0  dACCESS:          0  dHIT:          0  dMISS:          0  itACCESS:          0  itHIT:          0  itMISS:          0  dtACCESS:          0  dtHIT:          0  dtMISS:          0
cpu0_L1I PREFETCH  REQUESTED:   27562622  ISSUED:   27562622  CROSSED:          0  USEFUL:    1759280  USELESS:     581950
cpu0_L1I AVERAGE iMISS LATENCY: 20.0285 cycles
cpu0_L1I AVERAGE dMISS LATENCY: 0 cycles
cpu0_L1I AVERAGE itMISS LATENCY: 0 cycles
cpu0_L1I AVERAGE dtMISS LATENCY: 0 cycles
cpu0_L1I PAGE CROSSINGS (TLB HIT):         0 
cpu0_L1I PAGE CROSSINGS (TLB MISS):         0 
cpu0_L1I AVERAGE MISS LATENCY: 20.0285 cycles
cpu0_ITLB TOTAL       ACCESS:   29281234  HIT:   27552407  MISS:    1728827  iACCESS:   29281234  iHIT:   27552407  iMISS:    1728827  dACCESS:          0  dHIT:          0  dMISS:          0  itACCESS:          0  itHIT:          0  itMISS:          0  dtACCESS:          0  dtHIT:          0  dtMISS:          0
cpu0_ITLB LOAD         ACCESS:   29281234  HIT:   27552407  MISS:    1728827  iACCESS:   29281234  iHIT:   27552407  iMISS:    1728827  dACCESS:          0  dHIT:          0  dMISS:          0  itACCESS:          0  itHIT:          0  itMISS:          0  dtACCESS:          0  dtHIT:          0  dtMISS:          0
cpu0_ITLB RFO          ACCESS:          0  HIT:          0  MISS:          0  iACCESS:          0  iHIT:          0  iMISS:          0  dACCESS:          0  dHIT:          0  dMISS:          0  itACCESS:          0  itHIT:          0  itMISS:          0  dtACCESS:          0  dtHIT:          0  dtMISS:          0
cpu0_ITLB PREFETCH     ACCESS:          0  HIT:          0  MISS:          0  iACCESS:          0  iHIT:          0  iMISS:          0  dACCESS:          0  dHIT:          0  dMISS:          0  itACCESS:          0  itHIT:          0  itMISS:          0  dtACCESS:          0  dtHIT:          0  dtMISS:          0
cpu0_ITLB WRITE        ACCESS:          0  HIT:          0  MISS:          0  iACCESS:          0  iHIT:          0  iMISS:          0  dACCESS:          0  dHIT:          0  dMISS:          0  itACCESS:          0  itHIT:          0  itMISS:          0  dtACCESS:          0  dtHIT:          0  dtMISS:          0
cpu0_ITLB TRANSLATION  ACCESS:          0  HIT:          0  MISS:          0  iACCESS:          0  iHIT:          0  iMISS:          0  dACCESS:          0  dHIT:          0  dMISS:          0  itACCESS:          0  itHIT:          0  itMISS:          0  dtACCESS:          0  dtHIT:          0  dtMISS:          0
cpu0_ITLB PREFETCH  REQUESTED:          0  ISSUED:          0  CROSSED:          0  USEFUL:     294270  USELESS:      54761
cpu0_ITLB AVERAGE iMISS LATENCY: 3.62545 cycles
cpu0_ITLB AVERAGE dMISS LATENCY: 0 cycles
cpu0_ITLB AVERAGE itMISS LATENCY: 0 cycles
cpu0_ITLB AVERAGE dtMISS LATENCY: 0 cycles
cpu0_ITLB PAGE CROSSINGS (TLB HIT):         0 
cpu0_ITLB PAGE CROSSINGS (TLB MISS):         0 
cpu0_ITLB AVERAGE MISS LATENCY: 3.62545 cycles
cpu0_DTLB TOTAL       ACCESS:   29819147  HIT:   25427557  MISS:    4391590  iACCESS:          0  iHIT:          0  iMISS:          0  dACCESS:   29819147  dHIT:   25427557  dMISS:    4391590  itACCESS:          0  itHIT:          0  itMISS:          0  dtACCESS:          0  dtHIT:          0  dtMISS:          0
cpu0_DTLB LOAD         ACCESS:   29819147  HIT:   25427557  MISS:    4391590  iACCESS:          0  iHIT:          0  iMISS:          0  dACCESS:   29819147  dHIT:   25427557  dMISS:    4391590  itACCESS:          0  itHIT:          0  itMISS:          0  dtACCESS:          0  dtHIT:          0  dtMISS:          0
cpu0_DTLB RFO          ACCESS:          0  HIT:          0  MISS:          0  iACCESS:          0  iHIT:          0  iMISS:          0  dACCESS:          0  dHIT:          0  dMISS:          0  itACCESS:          0  itHIT:          0  itMISS:          0  dtACCESS:          0  dtHIT:          0  dtMISS:          0
cpu0_DTLB PREFETCH     ACCESS:          0  HIT:          0  MISS:          0  iACCESS:          0  iHIT:          0  iMISS:          0  dACCESS:          0  dHIT:          0  dMISS:          0  itACCESS:          0  itHIT:          0  itMISS:          0  dtACCESS:          0  dtHIT:          0  dtMISS:          0
cpu0_DTLB WRITE        ACCESS:          0  HIT:          0  MISS:          0  iACCESS:          0  iHIT:          0  iMISS:          0  dACCESS:          0  dHIT:          0  dMISS:          0  itACCESS:          0  itHIT:          0  itMISS:          0  dtACCESS:          0  dtHIT:          0  dtMISS:          0
cpu0_DTLB TRANSLATION  ACCESS:          0  HIT:          0  MISS:          0  iACCESS:          0  iHIT:          0  iMISS:          0  dACCESS:          0  dHIT:          0  dMISS:          0  itACCESS:          0  itHIT:          0  itMISS:          0  dtACCESS:          0  dtHIT:          0  dtMISS:          0
cpu0_DTLB PREFETCH  REQUESTED:          0  ISSUED:          0  CROSSED:          0  USEFUL:          0  USELESS:          0
cpu0_DTLB AVERAGE iMISS LATENCY: 0 cycles
cpu0_DTLB AVERAGE dMISS LATENCY: 11.9704 cycles
cpu0_DTLB AVERAGE itMISS LATENCY: 0 cycles
cpu0_DTLB AVERAGE dtMISS LATENCY: 0 cycles
cpu0_DTLB PAGE CROSSINGS (TLB HIT):         0 
cpu0_DTLB PAGE CROSSINGS (TLB MISS):         0 
cpu0_DTLB AVERAGE MISS LATENCY: 11.9704 cycles
cpu0_STLB TOTAL       ACCESS:    2675503  HIT:    2485533  MISS:     189970  iACCESS:     349034  iHIT:     328370  iMISS:      20664  dACCESS:    2326469  dHIT:    2157163  dMISS:     169306  itACCESS:          0  itHIT:          0  itMISS:          0  dtACCESS:          0  dtHIT:          0  dtMISS:          0
cpu0_STLB LOAD         ACCESS:    2675503  HIT:    2485533  MISS:     189970  iACCESS:     349034  iHIT:     328370  iMISS:      20664  dACCESS:    2326469  dHIT:    2157163  dMISS:     169306  itACCESS:          0  itHIT:          0  itMISS:          0  dtACCESS:          0  dtHIT:          0  dtMISS:          0
cpu0_STLB RFO          ACCESS:          0  HIT:          0  MISS:          0  iACCESS:          0  iHIT:          0  iMISS:          0  dACCESS:          0  dHIT:          0  dMISS:          0  itACCESS:          0  itHIT:          0  itMISS:          0  dtACCESS:          0  dtHIT:          0  dtMISS:          0
cpu0_STLB PREFETCH     ACCESS:          0  HIT:          0  MISS:          0  iACCESS:          0  iHIT:          0  iMISS:          0  dACCESS:          0  dHIT:          0  dMISS:          0  itACCESS:          0  itHIT:          0  itMISS:          0  dtACCESS:          0  dtHIT:          0  dtMISS:          0
cpu0_STLB WRITE        ACCESS:          0  HIT:          0  MISS:          0  iACCESS:          0  iHIT:          0  iMISS:          0  dACCESS:          0  dHIT:          0  dMISS:          0  itACCESS:          0  itHIT:          0  itMISS:          0  dtACCESS:          0  dtHIT:          0  dtMISS:          0
cpu0_STLB TRANSLATION  ACCESS:          0  HIT:          0  MISS:          0  iACCESS:          0  iHIT:          0  iMISS:          0  dACCESS:          0  dHIT:          0  dMISS:          0  itACCESS:          0  itHIT:          0  itMISS:          0  dtACCESS:          0  dtHIT:          0  dtMISS:          0
cpu0_STLB PREFETCH  REQUESTED:          0  ISSUED:          0  CROSSED:          0  USEFUL:          0  USELESS:          0
cpu0_STLB AVERAGE iMISS LATENCY: 18.6599 cycles
cpu0_STLB AVERAGE dMISS LATENCY: 177.483 cycles
cpu0_STLB AVERAGE itMISS LATENCY: 0 cycles
cpu0_STLB AVERAGE dtMISS LATENCY: 0 cycles
cpu0_STLB PAGE CROSSINGS (TLB HIT):         0 
cpu0_STLB PAGE CROSSINGS (TLB MISS):         0 
cpu0_STLB AVERAGE MISS LATENCY: 196.143 cycles
cpu0_L1D TOTAL       ACCESS:   45353547  HIT:   38798950  MISS:    6554597  iACCESS:          0  iHIT:          0  iMISS:          0  dACCESS:   45096314  dHIT:   38782645  dMISS:    6313669  itACCESS:      23736  itHIT:       2114  itMISS:      21622  dtACCESS:     233497  dtHIT:      14191  dtMISS:     219306
cpu0_L1D LOAD         ACCESS:   21813653  HIT:   18058068  MISS:    3755585  iACCESS:          0  iHIT:          0  iMISS:          0  dACCESS:   21813653  dHIT:   18058068  dMISS:    3755585  itACCESS:          0  itHIT:          0  itMISS:          0  dtACCESS:          0  dtHIT:          0  dtMISS:          0
cpu0_L1D RFO          ACCESS:          0  HIT:          0  MISS:          0  iACCESS:          0  iHIT:          0  iMISS:          0  dACCESS:          0  dHIT:          0  dMISS:          0  itACCESS:          0  itHIT:          0  itMISS:          0  dtACCESS:          0  dtHIT:          0  dtMISS:          0
cpu0_L1D PREFETCH     ACCESS:   13475471  HIT:   11374251  MISS:    2101220  iACCESS:          0  iHIT:          0  iMISS:          0  dACCESS:   13475471  dHIT:   11374251  dMISS:    2101220  itACCESS:          0  itHIT:          0  itMISS:          0  dtACCESS:          0  dtHIT:          0  dtMISS:          0
cpu0_L1D WRITE        ACCESS:    9807190  HIT:    9350326  MISS:     456864  iACCESS:          0  iHIT:          0  iMISS:          0  dACCESS:    9807190  dHIT:    9350326  dMISS:     456864  itACCESS:          0  itHIT:          0  itMISS:          0  dtACCESS:          0  dtHIT:          0  dtMISS:          0
cpu0_L1D TRANSLATION  ACCESS:     257233  HIT:      16305  MISS:     240928  iACCESS:          0  iHIT:          0  iMISS:          0  dACCESS:          0  dHIT:          0  dMISS:          0  itACCESS:      23736  itHIT:       2114  itMISS:      21622  dtACCESS:     233497  dtHIT:      14191  dtMISS:     219306
cpu0_L1D PREFETCH  REQUESTED:   21813653  ISSUED:   17576145  CROSSED:          0  USEFUL:     276403  USELESS:     836879
cpu0_L1D AVERAGE iMISS LATENCY: 0 cycles
cpu0_L1D AVERAGE dMISS LATENCY: 27.7476 cycles
cpu0_L1D AVERAGE itMISS LATENCY: 0.506494 cycles
cpu0_L1D AVERAGE dtMISS LATENCY: 4.77142 cycles
cpu0_L1D PAGE CROSSINGS (TLB HIT):         0 
cpu0_L1D PAGE CROSSINGS (TLB MISS):         0 
cpu0_L1D AVERAGE MISS LATENCY: 33.0255 cycles
cpu0_L2C TOTAL       ACCESS:    8455279  HIT:    5247024  MISS:    3208255  iACCESS:    2989558  iHIT:    1797863  iMISS:    1191695  dACCESS:    5231985  dHIT:    3412697  dMISS:    1819288  itACCESS:      21452  itHIT:       3266  itMISS:      18186  dtACCESS:     212284  dtHIT:      33198  dtMISS:     179086
cpu0_L2C LOAD         ACCESS:    3254523  HIT:    2520580  MISS:     733943  iACCESS:     682657  iHIT:     435111  iMISS:     247546  dACCESS:    2571866  dHIT:    2085469  dMISS:     486397  itACCESS:          0  itHIT:          0  itMISS:          0  dtACCESS:          0  dtHIT:          0  dtMISS:          0
cpu0_L2C RFO          ACCESS:     167088  HIT:      75277  MISS:      91811  iACCESS:          0  iHIT:          0  iMISS:          0  dACCESS:     167088  dHIT:      75277  dMISS:      91811  itACCESS:          0  itHIT:          0  itMISS:          0  dtACCESS:          0  dtHIT:          0  dtMISS:          0
cpu0_L2C PREFETCH     ACCESS:    4554265  HIT:    2370517  MISS:    2183748  iACCESS:    2306901  iHIT:    1362752  iMISS:     944149  dACCESS:    2247364  dHIT:    1007765  dMISS:    1239599  itACCESS:          0  itHIT:          0  itMISS:          0  dtACCESS:          0  dtHIT:          0  dtMISS:          0
cpu0_L2C WRITE        ACCESS:     245667  HIT:     244186  MISS:       1481  iACCESS:          0  iHIT:          0  iMISS:          0  dACCESS:     245667  dHIT:     244186  dMISS:       1481  itACCESS:          0  itHIT:          0  itMISS:          0  dtACCESS:          0  dtHIT:          0  dtMISS:          0
cpu0_L2C TRANSLATION  ACCESS:     233736  HIT:      36464  MISS:     197272  iACCESS:          0  iHIT:          0  iMISS:          0  dACCESS:          0  dHIT:          0  dMISS:          0  itACCESS:      21452  itHIT:       3266  itMISS:      18186  dtACCESS:     212284  dtHIT:      33198  dtMISS:     179086
cpu0_L2C PREFETCH  REQUESTED:    1362752  ISSUED:    1362656  CROSSED:          0  USEFUL:     319573  USELESS:     267665
cpu0_L2C AVERAGE iMISS LATENCY: 35.6152 cycles
cpu0_L2C AVERAGE dMISS LATENCY: 62.8808 cycles
cpu0_L2C AVERAGE itMISS LATENCY: 0.968721 cycles
cpu0_L2C AVERAGE dtMISS LATENCY: 9.09288 cycles
cpu0_L2C PAGE CROSSINGS (TLB HIT):         0 
cpu0_L2C PAGE CROSSINGS (TLB MISS):         0 
cpu0_L2C AVERAGE MISS LATENCY: 108.558 cycles
LLC TOTAL       ACCESS:    3172863  HIT:    1384767  MISS:    1788096  iACCESS:    1118980  iHIT:     493426  iMISS:     625554  dACCESS:    1856611  dHIT:     846443  dMISS:    1010168  itACCESS:      18186  itHIT:       2642  itMISS:      15544  dtACCESS:     179086  dtHIT:      42256  dtMISS:     136830
LLC LOAD         ACCESS:     728073  HIT:     339614  MISS:     388459  iACCESS:     246332  iHIT:     114520  iMISS:     131812  dACCESS:     481741  dHIT:     225094  dMISS:     256647  itACCESS:          0  itHIT:          0  itMISS:          0  dtACCESS:          0  dtHIT:          0  dtMISS:          0
LLC RFO          ACCESS:      91811  HIT:      33668  MISS:      58143  iACCESS:          0  iHIT:          0  iMISS:          0  dACCESS:      91811  dHIT:      33668  dMISS:      58143  itACCESS:          0  itHIT:          0  itMISS:          0  dtACCESS:          0  dtHIT:          0  dtMISS:          0
LLC PREFETCH     ACCESS:    2021608  HIT:     840559  MISS:    1181049  iACCESS:     872648  iHIT:     378906  iMISS:     493742  dACCESS:    1148960  dHIT:     461653  dMISS:     687307  itACCESS:          0  itHIT:          0  itMISS:          0  dtACCESS:          0  dtHIT:          0  dtMISS:          0
LLC WRITE        ACCESS:     134099  HIT:     126028  MISS:       8071  iACCESS:          0  iHIT:          0  iMISS:          0  dACCESS:     134099  dHIT:     126028  dMISS:       8071  itACCESS:          0  itHIT:          0  itMISS:          0  dtACCESS:          0  dtHIT:          0  dtMISS:          0
LLC TRANSLATION  ACCESS:     197272  HIT:      44898  MISS:     152374  iACCESS:          0  iHIT:          0  iMISS:          0  dACCESS:          0  dHIT:          0  dMISS:          0  itACCESS:      18186  itHIT:       2642  itMISS:      15544  dtACCESS:     179086  dtHIT:      42256  dtMISS:     136830
LLC PREFETCH  REQUESTED:          0  ISSUED:          0  CROSSED:          0  USEFUL:          0  USELESS:          0
LLC AVERAGE iMISS LATENCY: 51.6525 cycles
LLC AVERAGE dMISS LATENCY: 95.1685 cycles
LLC AVERAGE itMISS LATENCY: 1.53701 cycles
LLC AVERAGE dtMISS LATENCY: 14.3437 cycles
LLC PAGE CROSSINGS (TLB HIT):         0 
LLC PAGE CROSSINGS (TLB MISS):         0 
LLC AVERAGE MISS LATENCY: 162.702 cycles

PageTableWalker TOTAL       ACCESS:     100906  
PageTableWalker AVERAGE LATENCY: 5.36623 cycles
PageTableWalker TOTAL LATENCY: 541484 cycles

DRAM Statistics
Channel 0
 RQ ROW_BUFFER_HIT:     490117
  ROW_BUFFER_MISS:    1277144
 AVG DBUS CONGESTED CYCLE:    3.63432
 WQ ROW_BUFFER_HIT:      35536
  ROW_BUFFER_MISS:      24632  FULL:          0

