last_page:0x200000000000000
VMEM_RES_CAP:0x100000
PAGE_SIZE:4096
LOG2_PAGE_SIZE:12
LOG2_PAGE_TABLE_SIZE:9
page_table_levels:5
WARNING: physical memory size is smaller than virtual memory size
FDiP enabled with aggresivity 16

*** ChampSim Multicore Out-of-Order Simulator ***

Warmup Instructions: 50000000
Simulation Instructions: 100000000
Number of CPUs: 1
Small page size: 4096
Large page size: 2097152

CPU 0 Bimodal branch predictor
Basic BTB sets: 1024 ways: 8 indirect buffer size: 4096 RAS size: 64
Instruction page size distrubution: 0
Loading instruction page size distribution from /home/bsc/bsc018186/scratch/itp_asplos25_AE/dump/srv715_ap.pdst
Data page size distrubution: 0
Loading data page size distribution from /home/bsc/bsc018186/scratch/itp_asplos25_AE/dump/srv715_ap.pdst
cpu0_L2C IP-based stride prefetcher
cpu0_L1D next line prefetcher
cpu0_STLB using iTP with max lru@8
cpu0_STLB using iTP with instr@0 and data@2
Init sat counter with 3 bits (max:50).
cpu0_L1I next line prefetcher
Off-chip DRAM Size: 4 GiB Channels: 1 Width: 64-bit Data Rate: 3200 MT/s
Heartbeat CPU 0 instructions: 10000003 cycles: 2500869 heartbeat IPC: 3.99862 cumulative IPC: 3.99862 (Simulation time: 0 hr 0 min 39 sec) 
Heartbeat CPU 0 instructions: 20000003 cycles: 5002673 heartbeat IPC: 3.99712 cumulative IPC: 3.99787 (Simulation time: 0 hr 1 min 18 sec) 
Heartbeat CPU 0 instructions: 30000001 cycles: 7502863 heartbeat IPC: 3.9997 cumulative IPC: 3.99848 (Simulation time: 0 hr 1 min 59 sec) 
Heartbeat CPU 0 instructions: 40000003 cycles: 10002870 heartbeat IPC: 3.99999 cumulative IPC: 3.99886 (Simulation time: 0 hr 2 min 40 sec) 
Heartbeat CPU 0 instructions: 50000003 cycles: 12502951 heartbeat IPC: 3.99988 cumulative IPC: 3.99906 (Simulation time: 0 hr 3 min 21 sec) 
Warmup finished CPU 0 instructions: 50000003 cycles: 12502952 cumulative IPC: 3.99906 (Simulation time: 0 hr 3 min 21 sec) 

Warmup complete CPU 0 instructions: 50000003 cycles: 12502952 (Simulation time: 0 hr 3 min 21 sec) 

Heartbeat CPU 0 instructions: 60000002 cycles: 33826652 heartbeat IPC: 0.468962 cumulative IPC: 0.468962 (Simulation time: 0 hr 4 min 33 sec) 
Heartbeat CPU 0 instructions: 70000000 cycles: 54638368 heartbeat IPC: 0.480499 cumulative IPC: 0.474661 (Simulation time: 0 hr 5 min 45 sec) 
Heartbeat CPU 0 instructions: 80000000 cycles: 75223718 heartbeat IPC: 0.485783 cumulative IPC: 0.478311 (Simulation time: 0 hr 6 min 57 sec) 
Heartbeat CPU 0 instructions: 90000001 cycles: 80991213 heartbeat IPC: 1.73386 cumulative IPC: 0.584042 (Simulation time: 0 hr 7 min 48 sec) 
Heartbeat CPU 0 instructions: 100000000 cycles: 102312380 heartbeat IPC: 0.469018 cumulative IPC: 0.556735 (Simulation time: 0 hr 9 min 0 sec) 
*** Reached end of trace: /gpfs/projects/bsc18/MN4/bsc18/romol/ChampSim/traces/qualcomm_srv/srv715_ap.champsimtrace.xz
Heartbeat CPU 0 instructions: 110000004 cycles: 124813610 heartbeat IPC: 0.444421 cumulative IPC: 0.534233 (Simulation time: 0 hr 10 min 14 sec) 
Heartbeat CPU 0 instructions: 120000001 cycles: 146592700 heartbeat IPC: 0.459156 cumulative IPC: 0.522039 (Simulation time: 0 hr 11 min 27 sec) 
Heartbeat CPU 0 instructions: 130000001 cycles: 169471665 heartbeat IPC: 0.437083 cumulative IPC: 0.509656 (Simulation time: 0 hr 12 min 42 sec) 
Heartbeat CPU 0 instructions: 140000003 cycles: 191658936 heartbeat IPC: 0.450709 cumulative IPC: 0.502356 (Simulation time: 0 hr 13 min 56 sec) 
Heartbeat CPU 0 instructions: 150000001 cycles: 214566098 heartbeat IPC: 0.436545 cumulative IPC: 0.494895 (Simulation time: 0 hr 15 min 11 sec) 
Simulation finished CPU 0 instructions: 100000000 cycles: 202063148 cumulative IPC: 0.494895 (Simulation time: 0 hr 15 min 11 sec) 

Simulation complete CPU 0 instructions: 100000000 cycles: 202063148 (Simulation time: 0 hr 15 min 11 sec) 


ChampSim completed all CPUs

Saving instructions large page distribution to /home/bsc/bsc018186/scratch/itp_asplos25_AE/dump/srv715_ap.pdst...
Saving data large page distribution to /home/bsc/bsc018186/scratch/itp_asplos25_AE/dump/srv715_ap.pdst...
=== Simulation ===
CPU 0 runs /gpfs/projects/bsc18/MN4/bsc18/romol/ChampSim/traces/qualcomm_srv/srv715_ap.champsimtrace.xz

Region of Interest Statistics

CPU 0 cumulative IPC: 0.494895 instructions: 100000000 cycles: 202063148
CPU 0 Branch Prediction Accuracy: 82.4813% MPKI: 33.9338 Average ROB Occupancy at Mispredict: 11.3278
Branch type MPKI
BRANCH_DIRECT_JUMP: 1.25525
BRANCH_INDIRECT: 17.3725
BRANCH_CONDITIONAL: 10.6191
BRANCH_DIRECT_CALL: 2.32747
BRANCH_INDIRECT_CALL: 0.698961
BRANCH_RETURN: 1.66062

Instructions large pages: 0
Instructions small pages: 1202
Large page distribution for instructions: 0%

Data large pages: 0
Data small pages: 5167
Large page distribution for data: 0%

cpu0_L1I TOTAL       ACCESS:   35070392  HIT:   27866935  MISS:    7203457  iACCESS:   35070392  iHIT:   27866935  iMISS:    7203457  dACCESS:          0  dHIT:          0  dMISS:          0  itACCESS:          0  itHIT:          0  itMISS:          0  dtACCESS:          0  dtHIT:          0  dtMISS:          0
cpu0_L1I LOAD         ACCESS:    9368716  HIT:    7375628  MISS:    1993088  iACCESS:    9368716  iHIT:    7375628  iMISS:    1993088  dACCESS:          0  dHIT:          0  dMISS:          0  itACCESS:          0  itHIT:          0  itMISS:          0  dtACCESS:          0  dtHIT:          0  dtMISS:          0
cpu0_L1I RFO          ACCESS:          0  HIT:          0  MISS:          0  iACCESS:          0  iHIT:          0  iMISS:          0  dACCESS:          0  dHIT:          0  dMISS:          0  itACCESS:          0  itHIT:          0  itMISS:          0  dtACCESS:          0  dtHIT:          0  dtMISS:          0
cpu0_L1I PREFETCH     ACCESS:   25701676  HIT:   20491307  MISS:    5210369  iACCESS:   25701676  iHIT:   20491307  iMISS:    5210369  dACCESS:          0  dHIT:          0  dMISS:          0  itACCESS:          0  itHIT:          0  itMISS:          0  dtACCESS:          0  dtHIT:          0  dtMISS:          0
cpu0_L1I WRITE        ACCESS:          0  HIT:          0  MISS:          0  iACCESS:          0  iHIT:          0  iMISS:          0  dACCESS:          0  dHIT:          0  dMISS:          0  itACCESS:          0  itHIT:          0  itMISS:          0  dtACCESS:          0  dtHIT:          0  dtMISS:          0
cpu0_L1I TRANSLATION  ACCESS:          0  HIT:          0  MISS:          0  iACCESS:          0  iHIT:          0  iMISS:          0  dACCESS:          0  dHIT:          0  dMISS:          0  itACCESS:          0  itHIT:          0  itMISS:          0  dtACCESS:          0  dtHIT:          0  dtMISS:          0
cpu0_L1I PREFETCH  REQUESTED:   27915549  ISSUED:   27915549  CROSSED:          0  USEFUL:    1799075  USELESS:     611374
cpu0_L1I AVERAGE iMISS LATENCY: 20.7537 cycles
cpu0_L1I AVERAGE dMISS LATENCY: 0 cycles
cpu0_L1I AVERAGE itMISS LATENCY: 0 cycles
cpu0_L1I AVERAGE dtMISS LATENCY: 0 cycles
cpu0_L1I PAGE CROSSINGS (TLB HIT):         0 
cpu0_L1I PAGE CROSSINGS (TLB MISS):         0 
cpu0_L1I AVERAGE MISS LATENCY: 20.7537 cycles
cpu0_ITLB TOTAL       ACCESS:   29611264  HIT:   27842713  MISS:    1768551  iACCESS:   29611264  iHIT:   27842713  iMISS:    1768551  dACCESS:          0  dHIT:          0  dMISS:          0  itACCESS:          0  itHIT:          0  itMISS:          0  dtACCESS:          0  dtHIT:          0  dtMISS:          0
cpu0_ITLB LOAD         ACCESS:   29611264  HIT:   27842713  MISS:    1768551  iACCESS:   29611264  iHIT:   27842713  iMISS:    1768551  dACCESS:          0  dHIT:          0  dMISS:          0  itACCESS:          0  itHIT:          0  itMISS:          0  dtACCESS:          0  dtHIT:          0  dtMISS:          0
cpu0_ITLB RFO          ACCESS:          0  HIT:          0  MISS:          0  iACCESS:          0  iHIT:          0  iMISS:          0  dACCESS:          0  dHIT:          0  dMISS:          0  itACCESS:          0  itHIT:          0  itMISS:          0  dtACCESS:          0  dtHIT:          0  dtMISS:          0
cpu0_ITLB PREFETCH     ACCESS:          0  HIT:          0  MISS:          0  iACCESS:          0  iHIT:          0  iMISS:          0  dACCESS:          0  dHIT:          0  dMISS:          0  itACCESS:          0  itHIT:          0  itMISS:          0  dtACCESS:          0  dtHIT:          0  dtMISS:          0
cpu0_ITLB WRITE        ACCESS:          0  HIT:          0  MISS:          0  iACCESS:          0  iHIT:          0  iMISS:          0  dACCESS:          0  dHIT:          0  dMISS:          0  itACCESS:          0  itHIT:          0  itMISS:          0  dtACCESS:          0  dtHIT:          0  dtMISS:          0
cpu0_ITLB TRANSLATION  ACCESS:          0  HIT:          0  MISS:          0  iACCESS:          0  iHIT:          0  iMISS:          0  dACCESS:          0  dHIT:          0  dMISS:          0  itACCESS:          0  itHIT:          0  itMISS:          0  dtACCESS:          0  dtHIT:          0  dtMISS:          0
cpu0_ITLB PREFETCH  REQUESTED:          0  ISSUED:          0  CROSSED:          0  USEFUL:     300625  USELESS:      60551
cpu0_ITLB AVERAGE iMISS LATENCY: 4.48158 cycles
cpu0_ITLB AVERAGE dMISS LATENCY: 0 cycles
cpu0_ITLB AVERAGE itMISS LATENCY: 0 cycles
cpu0_ITLB AVERAGE dtMISS LATENCY: 0 cycles
cpu0_ITLB PAGE CROSSINGS (TLB HIT):         0 
cpu0_ITLB PAGE CROSSINGS (TLB MISS):         0 
cpu0_ITLB AVERAGE MISS LATENCY: 4.48158 cycles
cpu0_DTLB TOTAL       ACCESS:   29912544  HIT:   25611047  MISS:    4301497  iACCESS:          0  iHIT:          0  iMISS:          0  dACCESS:   29912544  dHIT:   25611047  dMISS:    4301497  itACCESS:          0  itHIT:          0  itMISS:          0  dtACCESS:          0  dtHIT:          0  dtMISS:          0
cpu0_DTLB LOAD         ACCESS:   29912544  HIT:   25611047  MISS:    4301497  iACCESS:          0  iHIT:          0  iMISS:          0  dACCESS:   29912544  dHIT:   25611047  dMISS:    4301497  itACCESS:          0  itHIT:          0  itMISS:          0  dtACCESS:          0  dtHIT:          0  dtMISS:          0
cpu0_DTLB RFO          ACCESS:          0  HIT:          0  MISS:          0  iACCESS:          0  iHIT:          0  iMISS:          0  dACCESS:          0  dHIT:          0  dMISS:          0  itACCESS:          0  itHIT:          0  itMISS:          0  dtACCESS:          0  dtHIT:          0  dtMISS:          0
cpu0_DTLB PREFETCH     ACCESS:          0  HIT:          0  MISS:          0  iACCESS:          0  iHIT:          0  iMISS:          0  dACCESS:          0  dHIT:          0  dMISS:          0  itACCESS:          0  itHIT:          0  itMISS:          0  dtACCESS:          0  dtHIT:          0  dtMISS:          0
cpu0_DTLB WRITE        ACCESS:          0  HIT:          0  MISS:          0  iACCESS:          0  iHIT:          0  iMISS:          0  dACCESS:          0  dHIT:          0  dMISS:          0  itACCESS:          0  itHIT:          0  itMISS:          0  dtACCESS:          0  dtHIT:          0  dtMISS:          0
cpu0_DTLB TRANSLATION  ACCESS:          0  HIT:          0  MISS:          0  iACCESS:          0  iHIT:          0  iMISS:          0  dACCESS:          0  dHIT:          0  dMISS:          0  itACCESS:          0  itHIT:          0  itMISS:          0  dtACCESS:          0  dtHIT:          0  dtMISS:          0
cpu0_DTLB PREFETCH  REQUESTED:          0  ISSUED:          0  CROSSED:          0  USEFUL:          0  USELESS:          0
cpu0_DTLB AVERAGE iMISS LATENCY: 0 cycles
cpu0_DTLB AVERAGE dMISS LATENCY: 12.6004 cycles
cpu0_DTLB AVERAGE itMISS LATENCY: 0 cycles
cpu0_DTLB AVERAGE dtMISS LATENCY: 0 cycles
cpu0_DTLB PAGE CROSSINGS (TLB HIT):         0 
cpu0_DTLB PAGE CROSSINGS (TLB MISS):         0 
cpu0_DTLB AVERAGE MISS LATENCY: 12.6004 cycles
cpu0_STLB TOTAL       ACCESS:    2621550  HIT:    2414059  MISS:     207491  iACCESS:     361186  iHIT:     330969  iMISS:      30217  dACCESS:    2260364  dHIT:    2083090  dMISS:     177274  itACCESS:          0  itHIT:          0  itMISS:          0  dtACCESS:          0  dtHIT:          0  dtMISS:          0
cpu0_STLB LOAD         ACCESS:    2621550  HIT:    2414059  MISS:     207491  iACCESS:     361186  iHIT:     330969  iMISS:      30217  dACCESS:    2260364  dHIT:    2083090  dMISS:     177274  itACCESS:          0  itHIT:          0  itMISS:          0  dtACCESS:          0  dtHIT:          0  dtMISS:          0
cpu0_STLB RFO          ACCESS:          0  HIT:          0  MISS:          0  iACCESS:          0  iHIT:          0  iMISS:          0  dACCESS:          0  dHIT:          0  dMISS:          0  itACCESS:          0  itHIT:          0  itMISS:          0  dtACCESS:          0  dtHIT:          0  dtMISS:          0
cpu0_STLB PREFETCH     ACCESS:          0  HIT:          0  MISS:          0  iACCESS:          0  iHIT:          0  iMISS:          0  dACCESS:          0  dHIT:          0  dMISS:          0  itACCESS:          0  itHIT:          0  itMISS:          0  dtACCESS:          0  dtHIT:          0  dtMISS:          0
cpu0_STLB WRITE        ACCESS:          0  HIT:          0  MISS:          0  iACCESS:          0  iHIT:          0  iMISS:          0  dACCESS:          0  dHIT:          0  dMISS:          0  itACCESS:          0  itHIT:          0  itMISS:          0  dtACCESS:          0  dtHIT:          0  dtMISS:          0
cpu0_STLB TRANSLATION  ACCESS:          0  HIT:          0  MISS:          0  iACCESS:          0  iHIT:          0  iMISS:          0  dACCESS:          0  dHIT:          0  dMISS:          0  itACCESS:          0  itHIT:          0  itMISS:          0  dtACCESS:          0  dtHIT:          0  dtMISS:          0
cpu0_STLB PREFETCH  REQUESTED:          0  ISSUED:          0  CROSSED:          0  USEFUL:          0  USELESS:          0
cpu0_STLB AVERAGE iMISS LATENCY: 24.5847 cycles
cpu0_STLB AVERAGE dMISS LATENCY: 173.001 cycles
cpu0_STLB AVERAGE itMISS LATENCY: 0 cycles
cpu0_STLB AVERAGE dtMISS LATENCY: 0 cycles
cpu0_STLB PAGE CROSSINGS (TLB HIT):         0 
cpu0_STLB PAGE CROSSINGS (TLB MISS):         0 
cpu0_STLB AVERAGE MISS LATENCY: 197.586 cycles
cpu0_L1D TOTAL       ACCESS:   46088934  HIT:   39152121  MISS:    6936813  iACCESS:          0  iHIT:          0  iMISS:          0  dACCESS:   45806767  dHIT:   39135298  dMISS:    6671469  itACCESS:      34226  itHIT:       2946  itMISS:      31280  dtACCESS:     247941  dtHIT:      13877  dtMISS:     234064
cpu0_L1D LOAD         ACCESS:   22048530  HIT:   18128361  MISS:    3920169  iACCESS:          0  iHIT:          0  iMISS:          0  dACCESS:   22048530  dHIT:   18128361  dMISS:    3920169  itACCESS:          0  itHIT:          0  itMISS:          0  dtACCESS:          0  dtHIT:          0  dtMISS:          0
cpu0_L1D RFO          ACCESS:          0  HIT:          0  MISS:          0  iACCESS:          0  iHIT:          0  iMISS:          0  dACCESS:          0  dHIT:          0  dMISS:          0  itACCESS:          0  itHIT:          0  itMISS:          0  dtACCESS:          0  dtHIT:          0  dtMISS:          0
cpu0_L1D PREFETCH     ACCESS:   13937458  HIT:   11640984  MISS:    2296474  iACCESS:          0  iHIT:          0  iMISS:          0  dACCESS:   13937458  dHIT:   11640984  dMISS:    2296474  itACCESS:          0  itHIT:          0  itMISS:          0  dtACCESS:          0  dtHIT:          0  dtMISS:          0
cpu0_L1D WRITE        ACCESS:    9820779  HIT:    9365953  MISS:     454826  iACCESS:          0  iHIT:          0  iMISS:          0  dACCESS:    9820779  dHIT:    9365953  dMISS:     454826  itACCESS:          0  itHIT:          0  itMISS:          0  dtACCESS:          0  dtHIT:          0  dtMISS:          0
cpu0_L1D TRANSLATION  ACCESS:     282167  HIT:      16823  MISS:     265344  iACCESS:          0  iHIT:          0  iMISS:          0  dACCESS:          0  dHIT:          0  dMISS:          0  itACCESS:      34226  itHIT:       2946  itMISS:      31280  dtACCESS:     247941  dtHIT:      13877  dtMISS:     234064
cpu0_L1D PREFETCH  REQUESTED:   22048530  ISSUED:   17928965  CROSSED:          0  USEFUL:     281804  USELESS:     877192
cpu0_L1D AVERAGE iMISS LATENCY: 0 cycles
cpu0_L1D AVERAGE dMISS LATENCY: 28.2424 cycles
cpu0_L1D AVERAGE itMISS LATENCY: 0.691658 cycles
cpu0_L1D AVERAGE dtMISS LATENCY: 4.84886 cycles
cpu0_L1D PAGE CROSSINGS (TLB HIT):         0 
cpu0_L1D PAGE CROSSINGS (TLB MISS):         0 
cpu0_L1D AVERAGE MISS LATENCY: 33.7829 cycles
cpu0_L2C TOTAL       ACCESS:    8712000  HIT:    5392496  MISS:    3319504  iACCESS:    3092267  iHIT:    1865145  iMISS:    1227122  dACCESS:    5364203  dHIT:    3488059  dMISS:    1876144  itACCESS:      31280  itHIT:       4461  itMISS:      26819  dtACCESS:     224250  dtHIT:      34831  dtMISS:     189419
cpu0_L2C LOAD         ACCESS:    3328593  HIT:    2568398  MISS:     760195  iACCESS:     714213  iHIT:     462213  iMISS:     252000  dACCESS:    2614380  dHIT:    2106185  dMISS:     508195  itACCESS:          0  itHIT:          0  itMISS:          0  dtACCESS:          0  dtHIT:          0  dtMISS:          0
cpu0_L2C RFO          ACCESS:     172047  HIT:      78168  MISS:      93879  iACCESS:          0  iHIT:          0  iMISS:          0  dACCESS:     172047  dHIT:      78168  dMISS:      93879  itACCESS:          0  itHIT:          0  itMISS:          0  dtACCESS:          0  dtHIT:          0  dtMISS:          0
cpu0_L2C PREFETCH     ACCESS:    4701641  HIT:    2454086  MISS:    2247555  iACCESS:    2378054  iHIT:    1402932  iMISS:     975122  dACCESS:    2323587  dHIT:    1051154  dMISS:    1272433  itACCESS:          0  itHIT:          0  itMISS:          0  dtACCESS:          0  dtHIT:          0  dtMISS:          0
cpu0_L2C WRITE        ACCESS:     254189  HIT:     252552  MISS:       1637  iACCESS:          0  iHIT:          0  iMISS:          0  dACCESS:     254189  dHIT:     252552  dMISS:       1637  itACCESS:          0  itHIT:          0  itMISS:          0  dtACCESS:          0  dtHIT:          0  dtMISS:          0
cpu0_L2C TRANSLATION  ACCESS:     255530  HIT:      39292  MISS:     216238  iACCESS:          0  iHIT:          0  iMISS:          0  dACCESS:          0  dHIT:          0  dMISS:          0  itACCESS:      31280  itHIT:       4461  itMISS:      26819  dtACCESS:     224250  dtHIT:      34831  dtMISS:     189419
cpu0_L2C PREFETCH  REQUESTED:    1393592  ISSUED:    1393368  CROSSED:          0  USEFUL:     327923  USELESS:     268738
cpu0_L2C AVERAGE iMISS LATENCY: 36.9986 cycles
cpu0_L2C AVERAGE dMISS LATENCY: 65.4807 cycles
cpu0_L2C AVERAGE itMISS LATENCY: 1.35219 cycles
cpu0_L2C AVERAGE dtMISS LATENCY: 9.46378 cycles
cpu0_L2C PAGE CROSSINGS (TLB HIT):         0 
cpu0_L2C PAGE CROSSINGS (TLB MISS):         0 
cpu0_L2C AVERAGE MISS LATENCY: 113.296 cycles
LLC TOTAL       ACCESS:    3286493  HIT:    1331681  MISS:    1954812  iACCESS:    1155197  iHIT:     477541  iMISS:     677656  dACCESS:    1915058  dHIT:     808430  dMISS:    1106628  itACCESS:      26819  itHIT:       4309  itMISS:      22510  dtACCESS:     189419  dtHIT:      41401  dtMISS:     148018
LLC LOAD         ACCESS:     753781  HIT:     318186  MISS:     435595  iACCESS:     250883  iHIT:     107108  iMISS:     143775  dACCESS:     502898  dHIT:     211078  dMISS:     291820  itACCESS:          0  itHIT:          0  itMISS:          0  dtACCESS:          0  dtHIT:          0  dtMISS:          0
LLC RFO          ACCESS:      93862  HIT:      32457  MISS:      61405  iACCESS:          0  iHIT:          0  iMISS:          0  dACCESS:      93862  dHIT:      32457  dMISS:      61405  itACCESS:          0  itHIT:          0  itMISS:          0  dtACCESS:          0  dtHIT:          0  dtMISS:          0
LLC PREFETCH     ACCESS:    2081752  HIT:     802878  MISS:    1278874  iACCESS:     904314  iHIT:     370433  iMISS:     533881  dACCESS:    1177438  dHIT:     432445  dMISS:     744993  itACCESS:          0  itHIT:          0  itMISS:          0  dtACCESS:          0  dtHIT:          0  dtMISS:          0
LLC WRITE        ACCESS:     140860  HIT:     132450  MISS:       8410  iACCESS:          0  iHIT:          0  iMISS:          0  dACCESS:     140860  dHIT:     132450  dMISS:       8410  itACCESS:          0  itHIT:          0  itMISS:          0  dtACCESS:          0  dtHIT:          0  dtMISS:          0
LLC TRANSLATION  ACCESS:     216238  HIT:      45710  MISS:     170528  iACCESS:          0  iHIT:          0  iMISS:          0  dACCESS:          0  dHIT:          0  dMISS:          0  itACCESS:      26819  itHIT:       4309  itMISS:      22510  dtACCESS:     189419  dtHIT:      41401  dtMISS:     148018
LLC PREFETCH  REQUESTED:          0  ISSUED:          0  CROSSED:          0  USEFUL:          0  USELESS:          0
LLC AVERAGE iMISS LATENCY: 51.2561 cycles
LLC AVERAGE dMISS LATENCY: 94.4942 cycles
LLC AVERAGE itMISS LATENCY: 2.02498 cycles
LLC AVERAGE dtMISS LATENCY: 14.1626 cycles
LLC PAGE CROSSINGS (TLB HIT):         0 
LLC PAGE CROSSINGS (TLB MISS):         0 
LLC AVERAGE MISS LATENCY: 161.938 cycles

PageTableWalker TOTAL       ACCESS:     112544  
PageTableWalker AVERAGE LATENCY: 5.50152 cycles
PageTableWalker TOTAL LATENCY: 619162 cycles

DRAM Statistics
Channel 0
 RQ ROW_BUFFER_HIT:     541426
  ROW_BUFFER_MISS:    1386322
 AVG DBUS CONGESTED CYCLE:    3.63888
 WQ ROW_BUFFER_HIT:      38992
  ROW_BUFFER_MISS:      27535  FULL:          0

