last_page:0x200000000000000
VMEM_RES_CAP:0x100000
PAGE_SIZE:4096
LOG2_PAGE_SIZE:12
LOG2_PAGE_TABLE_SIZE:9
page_table_levels:5
WARNING: physical memory size is smaller than virtual memory size
FDiP enabled with aggresivity 16

*** ChampSim Multicore Out-of-Order Simulator ***

Warmup Instructions: 50000000
Simulation Instructions: 100000000
Number of CPUs: 1
Small page size: 4096
Large page size: 2097152

CPU 0 Bimodal branch predictor
Basic BTB sets: 1024 ways: 8 indirect buffer size: 4096 RAS size: 64
Instruction page size distrubution: 0
Loading instruction page size distribution from /home/bsc/bsc018186/scratch/itp_asplos25_AE/dump/srv704_ap.pdst
Data page size distrubution: 0
Loading data page size distribution from /home/bsc/bsc018186/scratch/itp_asplos25_AE/dump/srv704_ap.pdst
cpu0_L2C IP-based stride prefetcher
cpu0_L2C is using PTP replacement policy:
	TLB_STRESS_THRESHOLD:0
	PTE_EVICTION_RATIO:0
cpu0_L1D next line prefetcher
cpu0_L1I next line prefetcher
Off-chip DRAM Size: 4 GiB Channels: 1 Width: 64-bit Data Rate: 3200 MT/s
Heartbeat CPU 0 instructions: 10000002 cycles: 2500195 heartbeat IPC: 3.99969 cumulative IPC: 3.99969 (Simulation time: 0 hr 0 min 37 sec) 
Heartbeat CPU 0 instructions: 20000000 cycles: 5000245 heartbeat IPC: 3.99992 cumulative IPC: 3.99981 (Simulation time: 0 hr 1 min 16 sec) 
Heartbeat CPU 0 instructions: 30000000 cycles: 7500247 heartbeat IPC: 4 cumulative IPC: 3.99987 (Simulation time: 0 hr 1 min 56 sec) 
Heartbeat CPU 0 instructions: 40000003 cycles: 10000295 heartbeat IPC: 3.99993 cumulative IPC: 3.99989 (Simulation time: 0 hr 2 min 36 sec) 
Heartbeat CPU 0 instructions: 50000000 cycles: 12500324 heartbeat IPC: 3.99996 cumulative IPC: 3.9999 (Simulation time: 0 hr 3 min 17 sec) 
Warmup finished CPU 0 instructions: 50000000 cycles: 12500325 cumulative IPC: 3.9999 (Simulation time: 0 hr 3 min 17 sec) 

Warmup complete CPU 0 instructions: 50000000 cycles: 12500325 (Simulation time: 0 hr 3 min 17 sec) 

Heartbeat CPU 0 instructions: 60000001 cycles: 27254177 heartbeat IPC: 0.67779 cumulative IPC: 0.67779 (Simulation time: 0 hr 4 min 23 sec) 
Heartbeat CPU 0 instructions: 70000004 cycles: 33434619 heartbeat IPC: 1.61801 cumulative IPC: 0.955371 (Simulation time: 0 hr 5 min 16 sec) 
Heartbeat CPU 0 instructions: 80000002 cycles: 48101822 heartbeat IPC: 0.681794 cumulative IPC: 0.842662 (Simulation time: 0 hr 6 min 22 sec) 
Heartbeat CPU 0 instructions: 90000003 cycles: 64044005 heartbeat IPC: 0.627267 cumulative IPC: 0.776041 (Simulation time: 0 hr 7 min 30 sec) 
Heartbeat CPU 0 instructions: 100000001 cycles: 79399502 heartbeat IPC: 0.651233 cumulative IPC: 0.747394 (Simulation time: 0 hr 8 min 37 sec) 
*** Reached end of trace: /gpfs/projects/bsc18/MN4/bsc18/romol/ChampSim/traces/qualcomm_srv/srv704_ap.champsimtrace.xz
Heartbeat CPU 0 instructions: 110000002 cycles: 95845628 heartbeat IPC: 0.608046 cumulative IPC: 0.719897 (Simulation time: 0 hr 9 min 44 sec) 
Heartbeat CPU 0 instructions: 120000004 cycles: 112151004 heartbeat IPC: 0.613295 cumulative IPC: 0.702454 (Simulation time: 0 hr 10 min 52 sec) 
Heartbeat CPU 0 instructions: 130000002 cycles: 127914155 heartbeat IPC: 0.634391 cumulative IPC: 0.693158 (Simulation time: 0 hr 11 min 58 sec) 
Heartbeat CPU 0 instructions: 140000001 cycles: 143219137 heartbeat IPC: 0.653382 cumulative IPC: 0.688501 (Simulation time: 0 hr 13 min 4 sec) 
Heartbeat CPU 0 instructions: 150000003 cycles: 159153598 heartbeat IPC: 0.627571 cumulative IPC: 0.681881 (Simulation time: 0 hr 14 min 12 sec) 
Simulation finished CPU 0 instructions: 100000003 cycles: 146653274 cumulative IPC: 0.681881 (Simulation time: 0 hr 14 min 12 sec) 

Simulation complete CPU 0 instructions: 100000003 cycles: 146653274 (Simulation time: 0 hr 14 min 12 sec) 


ChampSim completed all CPUs

Saving instructions large page distribution to /home/bsc/bsc018186/scratch/itp_asplos25_AE/dump/srv704_ap.pdst...
Saving data large page distribution to /home/bsc/bsc018186/scratch/itp_asplos25_AE/dump/srv704_ap.pdst...
=== Simulation ===
CPU 0 runs /gpfs/projects/bsc18/MN4/bsc18/romol/ChampSim/traces/qualcomm_srv/srv704_ap.champsimtrace.xz

Region of Interest Statistics

CPU 0 cumulative IPC: 0.681881 instructions: 100000003 cycles: 146653274
CPU 0 Branch Prediction Accuracy: 85.2403% MPKI: 28.2805 Average ROB Occupancy at Mispredict: 13.6644
Branch type MPKI
BRANCH_DIRECT_JUMP: 0.94631
BRANCH_INDIRECT: 14.5697
BRANCH_CONDITIONAL: 9.29308
BRANCH_DIRECT_CALL: 1.7075
BRANCH_INDIRECT_CALL: 0.53942
BRANCH_RETURN: 1.22449

Instructions large pages: 0
Instructions small pages: 10107
Large page distribution for instructions: 0%

Data large pages: 0
Data small pages: 9080
Large page distribution for data: 0%

cpu0_L1I TOTAL       ACCESS:   34346775  HIT:   27354966  MISS:    6991809  iACCESS:   34346775  iHIT:   27354966  iMISS:    6991809  dACCESS:          0  dHIT:          0  dMISS:          0  itACCESS:          0  itHIT:          0  itMISS:          0  dtACCESS:          0  dtHIT:          0  dtMISS:          0
cpu0_L1I LOAD         ACCESS:    9315468  HIT:    7353549  MISS:    1961919  iACCESS:    9315468  iHIT:    7353549  iMISS:    1961919  dACCESS:          0  dHIT:          0  dMISS:          0  itACCESS:          0  itHIT:          0  itMISS:          0  dtACCESS:          0  dtHIT:          0  dtMISS:          0
cpu0_L1I RFO          ACCESS:          0  HIT:          0  MISS:          0  iACCESS:          0  iHIT:          0  iMISS:          0  dACCESS:          0  dHIT:          0  dMISS:          0  itACCESS:          0  itHIT:          0  itMISS:          0  dtACCESS:          0  dtHIT:          0  dtMISS:          0
cpu0_L1I PREFETCH     ACCESS:   25031307  HIT:   20001417  MISS:    5029890  iACCESS:   25031307  iHIT:   20001417  iMISS:    5029890  dACCESS:          0  dHIT:          0  dMISS:          0  itACCESS:          0  itHIT:          0  itMISS:          0  dtACCESS:          0  dtHIT:          0  dtMISS:          0
cpu0_L1I WRITE        ACCESS:          0  HIT:          0  MISS:          0  iACCESS:          0  iHIT:          0  iMISS:          0  dACCESS:          0  dHIT:          0  dMISS:          0  itACCESS:          0  itHIT:          0  itMISS:          0  dtACCESS:          0  dtHIT:          0  dtMISS:          0
cpu0_L1I TRANSLATION  ACCESS:          0  HIT:          0  MISS:          0  iACCESS:          0  iHIT:          0  iMISS:          0  dACCESS:          0  dHIT:          0  dMISS:          0  itACCESS:          0  itHIT:          0  itMISS:          0  dtACCESS:          0  dtHIT:          0  dtMISS:          0
cpu0_L1I PREFETCH  REQUESTED:   27312805  ISSUED:   27312805  CROSSED:          0  USEFUL:    1724083  USELESS:     561009
cpu0_L1I AVERAGE iMISS LATENCY: 13.3346 cycles
cpu0_L1I AVERAGE dMISS LATENCY: 0 cycles
cpu0_L1I AVERAGE itMISS LATENCY: 0 cycles
cpu0_L1I AVERAGE dtMISS LATENCY: 0 cycles
cpu0_L1I PAGE CROSSINGS (TLB HIT):         0 
cpu0_L1I PAGE CROSSINGS (TLB MISS):         0 
cpu0_L1I AVERAGE MISS LATENCY: 13.3346 cycles
cpu0_ITLB TOTAL       ACCESS:   28750017  HIT:   27016412  MISS:    1733605  iACCESS:   28750017  iHIT:   27016412  iMISS:    1733605  dACCESS:          0  dHIT:          0  dMISS:          0  itACCESS:          0  itHIT:          0  itMISS:          0  dtACCESS:          0  dtHIT:          0  dtMISS:          0
cpu0_ITLB LOAD         ACCESS:   28750017  HIT:   27016412  MISS:    1733605  iACCESS:   28750017  iHIT:   27016412  iMISS:    1733605  dACCESS:          0  dHIT:          0  dMISS:          0  itACCESS:          0  itHIT:          0  itMISS:          0  dtACCESS:          0  dtHIT:          0  dtMISS:          0
cpu0_ITLB RFO          ACCESS:          0  HIT:          0  MISS:          0  iACCESS:          0  iHIT:          0  iMISS:          0  dACCESS:          0  dHIT:          0  dMISS:          0  itACCESS:          0  itHIT:          0  itMISS:          0  dtACCESS:          0  dtHIT:          0  dtMISS:          0
cpu0_ITLB PREFETCH     ACCESS:          0  HIT:          0  MISS:          0  iACCESS:          0  iHIT:          0  iMISS:          0  dACCESS:          0  dHIT:          0  dMISS:          0  itACCESS:          0  itHIT:          0  itMISS:          0  dtACCESS:          0  dtHIT:          0  dtMISS:          0
cpu0_ITLB WRITE        ACCESS:          0  HIT:          0  MISS:          0  iACCESS:          0  iHIT:          0  iMISS:          0  dACCESS:          0  dHIT:          0  dMISS:          0  itACCESS:          0  itHIT:          0  itMISS:          0  dtACCESS:          0  dtHIT:          0  dtMISS:          0
cpu0_ITLB TRANSLATION  ACCESS:          0  HIT:          0  MISS:          0  iACCESS:          0  iHIT:          0  iMISS:          0  dACCESS:          0  dHIT:          0  dMISS:          0  itACCESS:          0  itHIT:          0  itMISS:          0  dtACCESS:          0  dtHIT:          0  dtMISS:          0
cpu0_ITLB PREFETCH  REQUESTED:          0  ISSUED:          0  CROSSED:          0  USEFUL:     282290  USELESS:      57161
cpu0_ITLB AVERAGE iMISS LATENCY: 5.37263 cycles
cpu0_ITLB AVERAGE dMISS LATENCY: 0 cycles
cpu0_ITLB AVERAGE itMISS LATENCY: 0 cycles
cpu0_ITLB AVERAGE dtMISS LATENCY: 0 cycles
cpu0_ITLB PAGE CROSSINGS (TLB HIT):         0 
cpu0_ITLB PAGE CROSSINGS (TLB MISS):         0 
cpu0_ITLB AVERAGE MISS LATENCY: 5.37263 cycles
cpu0_DTLB TOTAL       ACCESS:   29465825  HIT:   25147167  MISS:    4318658  iACCESS:          0  iHIT:          0  iMISS:          0  dACCESS:   29465825  dHIT:   25147167  dMISS:    4318658  itACCESS:          0  itHIT:          0  itMISS:          0  dtACCESS:          0  dtHIT:          0  dtMISS:          0
cpu0_DTLB LOAD         ACCESS:   29465825  HIT:   25147167  MISS:    4318658  iACCESS:          0  iHIT:          0  iMISS:          0  dACCESS:   29465825  dHIT:   25147167  dMISS:    4318658  itACCESS:          0  itHIT:          0  itMISS:          0  dtACCESS:          0  dtHIT:          0  dtMISS:          0
cpu0_DTLB RFO          ACCESS:          0  HIT:          0  MISS:          0  iACCESS:          0  iHIT:          0  iMISS:          0  dACCESS:          0  dHIT:          0  dMISS:          0  itACCESS:          0  itHIT:          0  itMISS:          0  dtACCESS:          0  dtHIT:          0  dtMISS:          0
cpu0_DTLB PREFETCH     ACCESS:          0  HIT:          0  MISS:          0  iACCESS:          0  iHIT:          0  iMISS:          0  dACCESS:          0  dHIT:          0  dMISS:          0  itACCESS:          0  itHIT:          0  itMISS:          0  dtACCESS:          0  dtHIT:          0  dtMISS:          0
cpu0_DTLB WRITE        ACCESS:          0  HIT:          0  MISS:          0  iACCESS:          0  iHIT:          0  iMISS:          0  dACCESS:          0  dHIT:          0  dMISS:          0  itACCESS:          0  itHIT:          0  itMISS:          0  dtACCESS:          0  dtHIT:          0  dtMISS:          0
cpu0_DTLB TRANSLATION  ACCESS:          0  HIT:          0  MISS:          0  iACCESS:          0  iHIT:          0  iMISS:          0  dACCESS:          0  dHIT:          0  dMISS:          0  itACCESS:          0  itHIT:          0  itMISS:          0  dtACCESS:          0  dtHIT:          0  dtMISS:          0
cpu0_DTLB PREFETCH  REQUESTED:          0  ISSUED:          0  CROSSED:          0  USEFUL:          0  USELESS:          0
cpu0_DTLB AVERAGE iMISS LATENCY: 0 cycles
cpu0_DTLB AVERAGE dMISS LATENCY: 8.81513 cycles
cpu0_DTLB AVERAGE itMISS LATENCY: 0 cycles
cpu0_DTLB AVERAGE dtMISS LATENCY: 0 cycles
cpu0_DTLB PAGE CROSSINGS (TLB HIT):         0 
cpu0_DTLB PAGE CROSSINGS (TLB MISS):         0 
cpu0_DTLB AVERAGE MISS LATENCY: 8.81513 cycles
cpu0_STLB TOTAL       ACCESS:    2571197  HIT:    2414933  MISS:     156264  iACCESS:     339456  iHIT:     285290  iMISS:      54166  dACCESS:    2231741  dHIT:    2129643  dMISS:     102098  itACCESS:          0  itHIT:          0  itMISS:          0  dtACCESS:          0  dtHIT:          0  dtMISS:          0
cpu0_STLB LOAD         ACCESS:    2571197  HIT:    2414933  MISS:     156264  iACCESS:     339456  iHIT:     285290  iMISS:      54166  dACCESS:    2231741  dHIT:    2129643  dMISS:     102098  itACCESS:          0  itHIT:          0  itMISS:          0  dtACCESS:          0  dtHIT:          0  dtMISS:          0
cpu0_STLB RFO          ACCESS:          0  HIT:          0  MISS:          0  iACCESS:          0  iHIT:          0  iMISS:          0  dACCESS:          0  dHIT:          0  dMISS:          0  itACCESS:          0  itHIT:          0  itMISS:          0  dtACCESS:          0  dtHIT:          0  dtMISS:          0
cpu0_STLB PREFETCH     ACCESS:          0  HIT:          0  MISS:          0  iACCESS:          0  iHIT:          0  iMISS:          0  dACCESS:          0  dHIT:          0  dMISS:          0  itACCESS:          0  itHIT:          0  itMISS:          0  dtACCESS:          0  dtHIT:          0  dtMISS:          0
cpu0_STLB WRITE        ACCESS:          0  HIT:          0  MISS:          0  iACCESS:          0  iHIT:          0  iMISS:          0  dACCESS:          0  dHIT:          0  dMISS:          0  itACCESS:          0  itHIT:          0  itMISS:          0  dtACCESS:          0  dtHIT:          0  dtMISS:          0
cpu0_STLB TRANSLATION  ACCESS:          0  HIT:          0  MISS:          0  iACCESS:          0  iHIT:          0  iMISS:          0  dACCESS:          0  dHIT:          0  dMISS:          0  itACCESS:          0  itHIT:          0  itMISS:          0  dtACCESS:          0  dtHIT:          0  dtMISS:          0
cpu0_STLB PREFETCH  REQUESTED:          0  ISSUED:          0  CROSSED:          0  USEFUL:          0  USELESS:          0
cpu0_STLB AVERAGE iMISS LATENCY: 42.4148 cycles
cpu0_STLB AVERAGE dMISS LATENCY: 128.653 cycles
cpu0_STLB AVERAGE itMISS LATENCY: 0 cycles
cpu0_STLB AVERAGE dtMISS LATENCY: 0 cycles
cpu0_STLB PAGE CROSSINGS (TLB HIT):         0 
cpu0_STLB PAGE CROSSINGS (TLB MISS):         0 
cpu0_STLB AVERAGE MISS LATENCY: 171.068 cycles
cpu0_L1D TOTAL       ACCESS:   43877045  HIT:   38677224  MISS:    5199821  iACCESS:          0  iHIT:          0  iMISS:          0  dACCESS:   43659716  dHIT:   38658258  dMISS:    5001458  itACCESS:      58310  itHIT:       8742  itMISS:      49568  dtACCESS:     159019  dtHIT:      10224  dtMISS:     148795
cpu0_L1D LOAD         ACCESS:   21056656  HIT:   18028418  MISS:    3028238  iACCESS:          0  iHIT:          0  iMISS:          0  dACCESS:   21056656  dHIT:   18028418  dMISS:    3028238  itACCESS:          0  itHIT:          0  itMISS:          0  dtACCESS:          0  dtHIT:          0  dtMISS:          0
cpu0_L1D RFO          ACCESS:          0  HIT:          0  MISS:          0  iACCESS:          0  iHIT:          0  iMISS:          0  dACCESS:          0  dHIT:          0  dMISS:          0  itACCESS:          0  itHIT:          0  itMISS:          0  dtACCESS:          0  dtHIT:          0  dtMISS:          0
cpu0_L1D PREFETCH     ACCESS:   12772787  HIT:   11210406  MISS:    1562381  iACCESS:          0  iHIT:          0  iMISS:          0  dACCESS:   12772787  dHIT:   11210406  dMISS:    1562381  itACCESS:          0  itHIT:          0  itMISS:          0  dtACCESS:          0  dtHIT:          0  dtMISS:          0
cpu0_L1D WRITE        ACCESS:    9830273  HIT:    9419434  MISS:     410839  iACCESS:          0  iHIT:          0  iMISS:          0  dACCESS:    9830273  dHIT:    9419434  dMISS:     410839  itACCESS:          0  itHIT:          0  itMISS:          0  dtACCESS:          0  dtHIT:          0  dtMISS:          0
cpu0_L1D TRANSLATION  ACCESS:     217329  HIT:      18966  MISS:     198363  iACCESS:          0  iHIT:          0  iMISS:          0  dACCESS:          0  dHIT:          0  dMISS:          0  itACCESS:      58310  itHIT:       8742  itMISS:      49568  dtACCESS:     159019  dtHIT:      10224  dtMISS:     148795
cpu0_L1D PREFETCH  REQUESTED:   21056656  ISSUED:   17455450  CROSSED:          0  USEFUL:     273984  USELESS:     827795
cpu0_L1D AVERAGE iMISS LATENCY: 0 cycles
cpu0_L1D AVERAGE dMISS LATENCY: 24.5476 cycles
cpu0_L1D AVERAGE itMISS LATENCY: 1.18229 cycles
cpu0_L1D AVERAGE dtMISS LATENCY: 3.44916 cycles
cpu0_L1D PAGE CROSSINGS (TLB HIT):         0 
cpu0_L1D PAGE CROSSINGS (TLB MISS):         0 
cpu0_L1D AVERAGE MISS LATENCY: 29.1791 cycles
cpu0_L2C TOTAL       ACCESS:    8027906  HIT:    5347224  MISS:    2680682  iACCESS:    2950862  iHIT:    1964794  iMISS:     986068  dACCESS:    4893266  dHIT:    3356336  dMISS:    1536930  itACCESS:      49568  itHIT:       9054  itMISS:      40514  dtACCESS:     134210  dtHIT:      17040  dtMISS:     117170
cpu0_L2C LOAD         ACCESS:    3052167  HIT:    2430304  MISS:     621863  iACCESS:     700746  iHIT:     491811  iMISS:     208935  dACCESS:    2351421  dHIT:    1938493  dMISS:     412928  itACCESS:          0  itHIT:          0  itMISS:          0  dtACCESS:          0  dtHIT:          0  dtMISS:          0
cpu0_L2C RFO          ACCESS:     162744  HIT:      84653  MISS:      78091  iACCESS:          0  iHIT:          0  iMISS:          0  dACCESS:     162744  dHIT:      84653  dMISS:      78091  itACCESS:          0  itHIT:          0  itMISS:          0  dtACCESS:          0  dtHIT:          0  dtMISS:          0
cpu0_L2C PREFETCH     ACCESS:    4375141  HIT:    2554655  MISS:    1820486  iACCESS:    2250116  iHIT:    1472983  iMISS:     777133  dACCESS:    2125025  dHIT:    1081672  dMISS:    1043353  itACCESS:          0  itHIT:          0  itMISS:          0  dtACCESS:          0  dtHIT:          0  dtMISS:          0
cpu0_L2C WRITE        ACCESS:     254076  HIT:     251518  MISS:       2558  iACCESS:          0  iHIT:          0  iMISS:          0  dACCESS:     254076  dHIT:     251518  dMISS:       2558  itACCESS:          0  itHIT:          0  itMISS:          0  dtACCESS:          0  dtHIT:          0  dtMISS:          0
cpu0_L2C TRANSLATION  ACCESS:     183778  HIT:      26094  MISS:     157684  iACCESS:          0  iHIT:          0  iMISS:          0  dACCESS:          0  dHIT:          0  dMISS:          0  itACCESS:      49568  itHIT:       9054  itMISS:      40514  dtACCESS:     134210  dtHIT:      17040  dtMISS:     117170
cpu0_L2C PREFETCH  REQUESTED:    1254254  ISSUED:    1254151  CROSSED:          0  USEFUL:     297248  USELESS:     214819
cpu0_L2C AVERAGE iMISS LATENCY: 24.7546 cycles
cpu0_L2C AVERAGE dMISS LATENCY: 47.2446 cycles
cpu0_L2C AVERAGE itMISS LATENCY: 2.1113 cycles
cpu0_L2C AVERAGE dtMISS LATENCY: 6.19179 cycles
cpu0_L2C PAGE CROSSINGS (TLB HIT):         0 
cpu0_L2C PAGE CROSSINGS (TLB MISS):         0 
cpu0_L2C AVERAGE MISS LATENCY: 80.3022 cycles
LLC TOTAL       ACCESS:    2695915  HIT:    1647951  MISS:    1047964  iACCESS:     933147  iHIT:     601874  iMISS:     331273  dACCESS:    1605084  dHIT:     995641  dMISS:     609443  itACCESS:      40514  itHIT:      12286  itMISS:      28228  dtACCESS:     117170  dtHIT:      38150  dtMISS:      79020
LLC LOAD         ACCESS:     619745  HIT:     394299  MISS:     225446  iACCESS:     207850  iHIT:     136252  iMISS:      71598  dACCESS:     411895  dHIT:     258047  dMISS:     153848  itACCESS:          0  itHIT:          0  itMISS:          0  dtACCESS:          0  dtHIT:          0  dtMISS:          0
LLC RFO          ACCESS:      78076  HIT:      42026  MISS:      36050  iACCESS:          0  iHIT:          0  iMISS:          0  dACCESS:      78076  dHIT:      42026  dMISS:      36050  itACCESS:          0  itHIT:          0  itMISS:          0  dtACCESS:          0  dtHIT:          0  dtMISS:          0
LLC PREFETCH     ACCESS:    1717978  HIT:    1044252  MISS:     673726  iACCESS:     725297  iHIT:     465622  iMISS:     259675  dACCESS:     992681  dHIT:     578630  dMISS:     414051  itACCESS:          0  itHIT:          0  itMISS:          0  dtACCESS:          0  dtHIT:          0  dtMISS:          0
LLC WRITE        ACCESS:     122432  HIT:     116938  MISS:       5494  iACCESS:          0  iHIT:          0  iMISS:          0  dACCESS:     122432  dHIT:     116938  dMISS:       5494  itACCESS:          0  itHIT:          0  itMISS:          0  dtACCESS:          0  dtHIT:          0  dtMISS:          0
LLC TRANSLATION  ACCESS:     157684  HIT:      50436  MISS:     107248  iACCESS:          0  iHIT:          0  iMISS:          0  dACCESS:          0  dHIT:          0  dMISS:          0  itACCESS:      40514  itHIT:      12286  itMISS:      28228  dtACCESS:     117170  dtHIT:      38150  dtMISS:      79020
LLC PREFETCH  REQUESTED:          0  ISSUED:          0  CROSSED:          0  USEFUL:          0  USELESS:          0
LLC AVERAGE iMISS LATENCY: 46.0058 cycles
LLC AVERAGE dMISS LATENCY: 93.5609 cycles
LLC AVERAGE itMISS LATENCY: 4.64131 cycles
LLC AVERAGE dtMISS LATENCY: 13.6459 cycles
LLC PAGE CROSSINGS (TLB HIT):         0 
LLC PAGE CROSSINGS (TLB MISS):         0 
LLC AVERAGE MISS LATENCY: 157.854 cycles

PageTableWalker TOTAL       ACCESS:      90239  
PageTableWalker AVERAGE LATENCY: 5.29235 cycles
PageTableWalker TOTAL LATENCY: 477576 cycles

DRAM Statistics
Channel 0
 RQ ROW_BUFFER_HIT:     289088
  ROW_BUFFER_MISS:     752701
 AVG DBUS CONGESTED CYCLE:    3.62322
 WQ ROW_BUFFER_HIT:      19564
  ROW_BUFFER_MISS:      18509  FULL:          0

