last_page:0x200000000000000
VMEM_RES_CAP:0x100000
PAGE_SIZE:4096
LOG2_PAGE_SIZE:12
LOG2_PAGE_TABLE_SIZE:9
page_table_levels:5
WARNING: physical memory size is smaller than virtual memory size
FDiP enabled with aggresivity 16

*** ChampSim Multicore Out-of-Order Simulator ***

Warmup Instructions: 50000000
Simulation Instructions: 100000000
Number of CPUs: 1
Small page size: 4096
Large page size: 2097152

CPU 0 Bimodal branch predictor
Basic BTB sets: 1024 ways: 8 indirect buffer size: 4096 RAS size: 64
Instruction page size distrubution: 0
Loading instruction page size distribution from /home/bsc/bsc018186/scratch/itp_asplos25_AE/dump/srv715_ap.pdst
Data page size distrubution: 0
Loading data page size distribution from /home/bsc/bsc018186/scratch/itp_asplos25_AE/dump/srv715_ap.pdst
cpu0_L2C IP-based stride prefetcher
cpu0_L2C is using xPTP/LRU
	TLB_LOWER_STRESS_THRESHOLD:1
	TLB_UPPER_STRESS_THRESHOLD:9
	MIN_EVICTION_POSITION:4
cpu0_L1D next line prefetcher
cpu0_STLB using iTP with max lru@8
cpu0_STLB using iTP with instr@0 and data@2
Init sat counter with 3 bits (max:50).
cpu0_L1I next line prefetcher
Off-chip DRAM Size: 4 GiB Channels: 1 Width: 64-bit Data Rate: 3200 MT/s
Heartbeat CPU 0 instructions: 10000003 cycles: 2500863 heartbeat IPC: 3.99863 cumulative IPC: 3.99863 (Simulation time: 0 hr 0 min 45 sec) 
Heartbeat CPU 0 instructions: 20000000 cycles: 5002712 heartbeat IPC: 3.99705 cumulative IPC: 3.99784 (Simulation time: 0 hr 1 min 31 sec) 
Heartbeat CPU 0 instructions: 30000002 cycles: 7502946 heartbeat IPC: 3.99963 cumulative IPC: 3.99843 (Simulation time: 0 hr 2 min 15 sec) 
Heartbeat CPU 0 instructions: 40000000 cycles: 10002955 heartbeat IPC: 3.99999 cumulative IPC: 3.99882 (Simulation time: 0 hr 3 min 2 sec) 
Heartbeat CPU 0 instructions: 50000003 cycles: 12503066 heartbeat IPC: 3.99983 cumulative IPC: 3.99902 (Simulation time: 0 hr 3 min 50 sec) 
Warmup finished CPU 0 instructions: 50000003 cycles: 12503067 cumulative IPC: 3.99902 (Simulation time: 0 hr 3 min 50 sec) 

Warmup complete CPU 0 instructions: 50000003 cycles: 12503067 (Simulation time: 0 hr 3 min 50 sec) 

Heartbeat CPU 0 instructions: 60000002 cycles: 30216861 heartbeat IPC: 0.564532 cumulative IPC: 0.564532 (Simulation time: 0 hr 5 min 10 sec) 
Heartbeat CPU 0 instructions: 70000000 cycles: 47806008 heartbeat IPC: 0.568533 cumulative IPC: 0.566525 (Simulation time: 0 hr 6 min 28 sec) 
Heartbeat CPU 0 instructions: 80000000 cycles: 65642422 heartbeat IPC: 0.560651 cumulative IPC: 0.564554 (Simulation time: 0 hr 7 min 49 sec) 
Heartbeat CPU 0 instructions: 90000000 cycles: 72928037 heartbeat IPC: 1.37257 cumulative IPC: 0.661978 (Simulation time: 0 hr 8 min 58 sec) 
Heartbeat CPU 0 instructions: 100000000 cycles: 91126075 heartbeat IPC: 0.54951 cumulative IPC: 0.635947 (Simulation time: 0 hr 10 min 20 sec) 
*** Reached end of trace: /gpfs/projects/bsc18/MN4/bsc18/romol/ChampSim/traces/qualcomm_srv/srv715_ap.champsimtrace.xz
Heartbeat CPU 0 instructions: 110000004 cycles: 109934557 heartbeat IPC: 0.531676 cumulative IPC: 0.615818 (Simulation time: 0 hr 11 min 39 sec) 
Heartbeat CPU 0 instructions: 120000000 cycles: 128302900 heartbeat IPC: 0.544415 cumulative IPC: 0.604492 (Simulation time: 0 hr 13 min 0 sec) 
Heartbeat CPU 0 instructions: 130000001 cycles: 147817352 heartbeat IPC: 0.512441 cumulative IPC: 0.591217 (Simulation time: 0 hr 14 min 21 sec) 
Heartbeat CPU 0 instructions: 140000003 cycles: 166817515 heartbeat IPC: 0.526312 cumulative IPC: 0.583225 (Simulation time: 0 hr 15 min 35 sec) 
Heartbeat CPU 0 instructions: 150000002 cycles: 186282603 heartbeat IPC: 0.513741 cumulative IPC: 0.575442 (Simulation time: 0 hr 16 min 54 sec) 
Simulation finished CPU 0 instructions: 100000000 cycles: 173779538 cumulative IPC: 0.575442 (Simulation time: 0 hr 16 min 54 sec) 

Simulation complete CPU 0 instructions: 100000000 cycles: 173779538 (Simulation time: 0 hr 16 min 54 sec) 


ChampSim completed all CPUs

Saving instructions large page distribution to /home/bsc/bsc018186/scratch/itp_asplos25_AE/dump/srv715_ap.pdst...
Saving data large page distribution to /home/bsc/bsc018186/scratch/itp_asplos25_AE/dump/srv715_ap.pdst...
=== Simulation ===
CPU 0 runs /gpfs/projects/bsc18/MN4/bsc18/romol/ChampSim/traces/qualcomm_srv/srv715_ap.champsimtrace.xz

Region of Interest Statistics

CPU 0 cumulative IPC: 0.575442 instructions: 100000000 cycles: 173779538
CPU 0 Branch Prediction Accuracy: 82.4813% MPKI: 33.9338 Average ROB Occupancy at Mispredict: 11.4095
Branch type MPKI
BRANCH_DIRECT_JUMP: 1.25525
BRANCH_INDIRECT: 17.3725
BRANCH_CONDITIONAL: 10.6191
BRANCH_DIRECT_CALL: 2.32747
BRANCH_INDIRECT_CALL: 0.698961
BRANCH_RETURN: 1.66062

Instructions large pages: 0
Instructions small pages: 1202
Large page distribution for instructions: 0%

Data large pages: 0
Data small pages: 5167
Large page distribution for data: 0%

cpu0_L1I TOTAL       ACCESS:   35263086  HIT:   27843745  MISS:    7419341  iACCESS:   35263086  iHIT:   27843745  iMISS:    7419341  dACCESS:          0  dHIT:          0  dMISS:          0  itACCESS:          0  itHIT:          0  itMISS:          0  dtACCESS:          0  dtHIT:          0  dtMISS:          0
cpu0_L1I LOAD         ACCESS:    9424115  HIT:    7371811  MISS:    2052304  iACCESS:    9424115  iHIT:    7371811  iMISS:    2052304  dACCESS:          0  dHIT:          0  dMISS:          0  itACCESS:          0  itHIT:          0  itMISS:          0  dtACCESS:          0  dtHIT:          0  dtMISS:          0
cpu0_L1I RFO          ACCESS:          0  HIT:          0  MISS:          0  iACCESS:          0  iHIT:          0  iMISS:          0  dACCESS:          0  dHIT:          0  dMISS:          0  itACCESS:          0  itHIT:          0  itMISS:          0  dtACCESS:          0  dtHIT:          0  dtMISS:          0
cpu0_L1I PREFETCH     ACCESS:   25838971  HIT:   20471934  MISS:    5367037  iACCESS:   25838971  iHIT:   20471934  iMISS:    5367037  dACCESS:          0  dHIT:          0  dMISS:          0  itACCESS:          0  itHIT:          0  itMISS:          0  dtACCESS:          0  dtHIT:          0  dtMISS:          0
cpu0_L1I WRITE        ACCESS:          0  HIT:          0  MISS:          0  iACCESS:          0  iHIT:          0  iMISS:          0  dACCESS:          0  dHIT:          0  dMISS:          0  itACCESS:          0  itHIT:          0  itMISS:          0  dtACCESS:          0  dtHIT:          0  dtMISS:          0
cpu0_L1I TRANSLATION  ACCESS:          0  HIT:          0  MISS:          0  iACCESS:          0  iHIT:          0  iMISS:          0  dACCESS:          0  dHIT:          0  dMISS:          0  itACCESS:          0  itHIT:          0  itMISS:          0  dtACCESS:          0  dtHIT:          0  dtMISS:          0
cpu0_L1I PREFETCH  REQUESTED:   27966120  ISSUED:   27965716  CROSSED:          0  USEFUL:    1806571  USELESS:     610999
cpu0_L1I AVERAGE iMISS LATENCY: 17.438 cycles
cpu0_L1I AVERAGE dMISS LATENCY: 0 cycles
cpu0_L1I AVERAGE itMISS LATENCY: 0 cycles
cpu0_L1I AVERAGE dtMISS LATENCY: 0 cycles
cpu0_L1I PAGE CROSSINGS (TLB HIT):         0 
cpu0_L1I PAGE CROSSINGS (TLB MISS):         0 
cpu0_L1I AVERAGE MISS LATENCY: 17.438 cycles
cpu0_ITLB TOTAL       ACCESS:   29671943  HIT:   27913772  MISS:    1758171  iACCESS:   29671943  iHIT:   27913772  iMISS:    1758171  dACCESS:          0  dHIT:          0  dMISS:          0  itACCESS:          0  itHIT:          0  itMISS:          0  dtACCESS:          0  dtHIT:          0  dtMISS:          0
cpu0_ITLB LOAD         ACCESS:   29671943  HIT:   27913772  MISS:    1758171  iACCESS:   29671943  iHIT:   27913772  iMISS:    1758171  dACCESS:          0  dHIT:          0  dMISS:          0  itACCESS:          0  itHIT:          0  itMISS:          0  dtACCESS:          0  dtHIT:          0  dtMISS:          0
cpu0_ITLB RFO          ACCESS:          0  HIT:          0  MISS:          0  iACCESS:          0  iHIT:          0  iMISS:          0  dACCESS:          0  dHIT:          0  dMISS:          0  itACCESS:          0  itHIT:          0  itMISS:          0  dtACCESS:          0  dtHIT:          0  dtMISS:          0
cpu0_ITLB PREFETCH     ACCESS:          0  HIT:          0  MISS:          0  iACCESS:          0  iHIT:          0  iMISS:          0  dACCESS:          0  dHIT:          0  dMISS:          0  itACCESS:          0  itHIT:          0  itMISS:          0  dtACCESS:          0  dtHIT:          0  dtMISS:          0
cpu0_ITLB WRITE        ACCESS:          0  HIT:          0  MISS:          0  iACCESS:          0  iHIT:          0  iMISS:          0  dACCESS:          0  dHIT:          0  dMISS:          0  itACCESS:          0  itHIT:          0  itMISS:          0  dtACCESS:          0  dtHIT:          0  dtMISS:          0
cpu0_ITLB TRANSLATION  ACCESS:          0  HIT:          0  MISS:          0  iACCESS:          0  iHIT:          0  iMISS:          0  dACCESS:          0  dHIT:          0  dMISS:          0  itACCESS:          0  itHIT:          0  itMISS:          0  dtACCESS:          0  dtHIT:          0  dtMISS:          0
cpu0_ITLB PREFETCH  REQUESTED:          0  ISSUED:          0  CROSSED:          0  USEFUL:     301324  USELESS:      59912
cpu0_ITLB AVERAGE iMISS LATENCY: 3.63423 cycles
cpu0_ITLB AVERAGE dMISS LATENCY: 0 cycles
cpu0_ITLB AVERAGE itMISS LATENCY: 0 cycles
cpu0_ITLB AVERAGE dtMISS LATENCY: 0 cycles
cpu0_ITLB PAGE CROSSINGS (TLB HIT):         0 
cpu0_ITLB PAGE CROSSINGS (TLB MISS):         0 
cpu0_ITLB AVERAGE MISS LATENCY: 3.63423 cycles
cpu0_DTLB TOTAL       ACCESS:   29936695  HIT:   25775788  MISS:    4160907  iACCESS:          0  iHIT:          0  iMISS:          0  dACCESS:   29936695  dHIT:   25775788  dMISS:    4160907  itACCESS:          0  itHIT:          0  itMISS:          0  dtACCESS:          0  dtHIT:          0  dtMISS:          0
cpu0_DTLB LOAD         ACCESS:   29936695  HIT:   25775788  MISS:    4160907  iACCESS:          0  iHIT:          0  iMISS:          0  dACCESS:   29936695  dHIT:   25775788  dMISS:    4160907  itACCESS:          0  itHIT:          0  itMISS:          0  dtACCESS:          0  dtHIT:          0  dtMISS:          0
cpu0_DTLB RFO          ACCESS:          0  HIT:          0  MISS:          0  iACCESS:          0  iHIT:          0  iMISS:          0  dACCESS:          0  dHIT:          0  dMISS:          0  itACCESS:          0  itHIT:          0  itMISS:          0  dtACCESS:          0  dtHIT:          0  dtMISS:          0
cpu0_DTLB PREFETCH     ACCESS:          0  HIT:          0  MISS:          0  iACCESS:          0  iHIT:          0  iMISS:          0  dACCESS:          0  dHIT:          0  dMISS:          0  itACCESS:          0  itHIT:          0  itMISS:          0  dtACCESS:          0  dtHIT:          0  dtMISS:          0
cpu0_DTLB WRITE        ACCESS:          0  HIT:          0  MISS:          0  iACCESS:          0  iHIT:          0  iMISS:          0  dACCESS:          0  dHIT:          0  dMISS:          0  itACCESS:          0  itHIT:          0  itMISS:          0  dtACCESS:          0  dtHIT:          0  dtMISS:          0
cpu0_DTLB TRANSLATION  ACCESS:          0  HIT:          0  MISS:          0  iACCESS:          0  iHIT:          0  iMISS:          0  dACCESS:          0  dHIT:          0  dMISS:          0  itACCESS:          0  itHIT:          0  itMISS:          0  dtACCESS:          0  dtHIT:          0  dtMISS:          0
cpu0_DTLB PREFETCH  REQUESTED:          0  ISSUED:          0  CROSSED:          0  USEFUL:          0  USELESS:          0
cpu0_DTLB AVERAGE iMISS LATENCY: 0 cycles
cpu0_DTLB AVERAGE dMISS LATENCY: 8.25141 cycles
cpu0_DTLB AVERAGE itMISS LATENCY: 0 cycles
cpu0_DTLB AVERAGE dtMISS LATENCY: 0 cycles
cpu0_DTLB PAGE CROSSINGS (TLB HIT):         0 
cpu0_DTLB PAGE CROSSINGS (TLB MISS):         0 
cpu0_DTLB AVERAGE MISS LATENCY: 8.25141 cycles
cpu0_STLB TOTAL       ACCESS:    2620615  HIT:    2413045  MISS:     207570  iACCESS:     361248  iHIT:     331109  iMISS:      30139  dACCESS:    2259367  dHIT:    2081936  dMISS:     177431  itACCESS:          0  itHIT:          0  itMISS:          0  dtACCESS:          0  dtHIT:          0  dtMISS:          0
cpu0_STLB LOAD         ACCESS:    2620615  HIT:    2413045  MISS:     207570  iACCESS:     361248  iHIT:     331109  iMISS:      30139  dACCESS:    2259367  dHIT:    2081936  dMISS:     177431  itACCESS:          0  itHIT:          0  itMISS:          0  dtACCESS:          0  dtHIT:          0  dtMISS:          0
cpu0_STLB RFO          ACCESS:          0  HIT:          0  MISS:          0  iACCESS:          0  iHIT:          0  iMISS:          0  dACCESS:          0  dHIT:          0  dMISS:          0  itACCESS:          0  itHIT:          0  itMISS:          0  dtACCESS:          0  dtHIT:          0  dtMISS:          0
cpu0_STLB PREFETCH     ACCESS:          0  HIT:          0  MISS:          0  iACCESS:          0  iHIT:          0  iMISS:          0  dACCESS:          0  dHIT:          0  dMISS:          0  itACCESS:          0  itHIT:          0  itMISS:          0  dtACCESS:          0  dtHIT:          0  dtMISS:          0
cpu0_STLB WRITE        ACCESS:          0  HIT:          0  MISS:          0  iACCESS:          0  iHIT:          0  iMISS:          0  dACCESS:          0  dHIT:          0  dMISS:          0  itACCESS:          0  itHIT:          0  itMISS:          0  dtACCESS:          0  dtHIT:          0  dtMISS:          0
cpu0_STLB TRANSLATION  ACCESS:          0  HIT:          0  MISS:          0  iACCESS:          0  iHIT:          0  iMISS:          0  dACCESS:          0  dHIT:          0  dMISS:          0  itACCESS:          0  itHIT:          0  itMISS:          0  dtACCESS:          0  dtHIT:          0  dtMISS:          0
cpu0_STLB PREFETCH  REQUESTED:          0  ISSUED:          0  CROSSED:          0  USEFUL:          0  USELESS:          0
cpu0_STLB AVERAGE iMISS LATENCY: 17.1763 cycles
cpu0_STLB AVERAGE dMISS LATENCY: 77.2191 cycles
cpu0_STLB AVERAGE itMISS LATENCY: 0 cycles
cpu0_STLB AVERAGE dtMISS LATENCY: 0 cycles
cpu0_STLB PAGE CROSSINGS (TLB HIT):         0 
cpu0_STLB PAGE CROSSINGS (TLB MISS):         0 
cpu0_STLB AVERAGE MISS LATENCY: 94.3953 cycles
cpu0_L1D TOTAL       ACCESS:   47268760  HIT:   39220131  MISS:    8048629  iACCESS:          0  iHIT:          0  iMISS:          0  dACCESS:   46989738  dHIT:   39203205  dMISS:    7786533  itACCESS:      34140  itHIT:       2917  itMISS:      31223  dtACCESS:     244882  dtHIT:      14009  dtMISS:     230873
cpu0_L1D LOAD         ACCESS:   22764682  HIT:   18248748  MISS:    4515934  iACCESS:          0  iHIT:          0  iMISS:          0  dACCESS:   22764682  dHIT:   18248748  dMISS:    4515934  itACCESS:          0  itHIT:          0  itMISS:          0  dtACCESS:          0  dtHIT:          0  dtMISS:          0
cpu0_L1D RFO          ACCESS:          0  HIT:          0  MISS:          0  iACCESS:          0  iHIT:          0  iMISS:          0  dACCESS:          0  dHIT:          0  dMISS:          0  itACCESS:          0  itHIT:          0  itMISS:          0  dtACCESS:          0  dtHIT:          0  dtMISS:          0
cpu0_L1D PREFETCH     ACCESS:   14402070  HIT:   11593291  MISS:    2808779  iACCESS:          0  iHIT:          0  iMISS:          0  dACCESS:   14402070  dHIT:   11593291  dMISS:    2808779  itACCESS:          0  itHIT:          0  itMISS:          0  dtACCESS:          0  dtHIT:          0  dtMISS:          0
cpu0_L1D WRITE        ACCESS:    9822986  HIT:    9361166  MISS:     461820  iACCESS:          0  iHIT:          0  iMISS:          0  dACCESS:    9822986  dHIT:    9361166  dMISS:     461820  itACCESS:          0  itHIT:          0  itMISS:          0  dtACCESS:          0  dtHIT:          0  dtMISS:          0
cpu0_L1D TRANSLATION  ACCESS:     279022  HIT:      16926  MISS:     262096  iACCESS:          0  iHIT:          0  iMISS:          0  dACCESS:          0  dHIT:          0  dMISS:          0  itACCESS:      34140  itHIT:       2917  itMISS:      31223  dtACCESS:     244882  dtHIT:      14009  dtMISS:     230873
cpu0_L1D PREFETCH  REQUESTED:   22764682  ISSUED:   17836405  CROSSED:          0  USEFUL:     282829  USELESS:     726132
cpu0_L1D AVERAGE iMISS LATENCY: 0 cycles
cpu0_L1D AVERAGE dMISS LATENCY: 23.463 cycles
cpu0_L1D AVERAGE itMISS LATENCY: 0.405573 cycles
cpu0_L1D AVERAGE dtMISS LATENCY: 1.72211 cycles
cpu0_L1D PAGE CROSSINGS (TLB HIT):         0 
cpu0_L1D PAGE CROSSINGS (TLB MISS):         0 
cpu0_L1D AVERAGE MISS LATENCY: 25.5907 cycles
cpu0_L2C TOTAL       ACCESS:    8439209  HIT:    2734359  MISS:    5704850  iACCESS:    3091949  iHIT:    1218943  iMISS:    1873006  dACCESS:    5091659  dHIT:    1355828  dMISS:    3735831  itACCESS:      31223  itHIT:      10702  itMISS:      20521  dtACCESS:     224378  dtHIT:     148886  dtMISS:      75492
cpu0_L2C LOAD         ACCESS:    3230818  HIT:     935064  MISS:    2295754  iACCESS:     706154  iHIT:     260574  iMISS:     445580  dACCESS:    2524664  dHIT:     674490  dMISS:    1850174  itACCESS:          0  itHIT:          0  itMISS:          0  dtACCESS:          0  dtHIT:          0  dtMISS:          0
cpu0_L2C RFO          ACCESS:     172092  HIT:      24957  MISS:     147135  iACCESS:          0  iHIT:          0  iMISS:          0  dACCESS:     172092  dHIT:      24957  dMISS:     147135  itACCESS:          0  itHIT:          0  itMISS:          0  dtACCESS:          0  dtHIT:          0  dtMISS:          0
cpu0_L2C PREFETCH     ACCESS:    4526960  HIT:    1514023  MISS:    3012937  iACCESS:    2385795  iHIT:     958369  iMISS:    1427426  dACCESS:    2141165  dHIT:     555654  dMISS:    1585511  itACCESS:          0  itHIT:          0  itMISS:          0  dtACCESS:          0  dtHIT:          0  dtMISS:          0
cpu0_L2C WRITE        ACCESS:     253738  HIT:     100727  MISS:     153011  iACCESS:          0  iHIT:          0  iMISS:          0  dACCESS:     253738  dHIT:     100727  dMISS:     153011  itACCESS:          0  itHIT:          0  itMISS:          0  dtACCESS:          0  dtHIT:          0  dtMISS:          0
cpu0_L2C TRANSLATION  ACCESS:     255601  HIT:     159588  MISS:      96013  iACCESS:          0  iHIT:          0  iMISS:          0  dACCESS:          0  dHIT:          0  dMISS:          0  itACCESS:      31223  itHIT:      10702  itMISS:      20521  dtACCESS:     224378  dtHIT:     148886  dtMISS:      75492
cpu0_L2C PREFETCH  REQUESTED:    1365191  ISSUED:    1365148  CROSSED:          0  USEFUL:     346000  USELESS:     347948
cpu0_L2C AVERAGE iMISS LATENCY: 17.8784 cycles
cpu0_L2C AVERAGE dMISS LATENCY: 35.8829 cycles
cpu0_L2C AVERAGE itMISS LATENCY: 0.519166 cycles
cpu0_L2C AVERAGE dtMISS LATENCY: 2.06094 cycles
cpu0_L2C PAGE CROSSINGS (TLB HIT):         0 
cpu0_L2C PAGE CROSSINGS (TLB MISS):         0 
cpu0_L2C AVERAGE MISS LATENCY: 56.3414 cycles
LLC TOTAL       ACCESS:    5589485  HIT:    4225569  MISS:    1363916  iACCESS:    1808411  iHIT:    1352283  iMISS:     456128  dACCESS:    3685061  dHIT:    2847806  dMISS:     837255  itACCESS:      20521  itHIT:       5846  itMISS:      14675  dtACCESS:      75492  dtHIT:      19634  dtMISS:      55858
LLC LOAD         ACCESS:    2289322  HIT:    1978212  MISS:     311110  iACCESS:     444465  iHIT:     352154  iMISS:      92311  dACCESS:    1844857  dHIT:    1626058  dMISS:     218799  itACCESS:          0  itHIT:          0  itMISS:          0  dtACCESS:          0  dtHIT:          0  dtMISS:          0
LLC RFO          ACCESS:     147129  HIT:      92206  MISS:      54923  iACCESS:          0  iHIT:          0  iMISS:          0  dACCESS:     147129  dHIT:      92206  dMISS:      54923  itACCESS:          0  itHIT:          0  itMISS:          0  dtACCESS:          0  dtHIT:          0  dtMISS:          0
LLC PREFETCH     ACCESS:    2863449  HIT:    1938908  MISS:     924541  iACCESS:    1363946  iHIT:    1000129  iMISS:     363817  dACCESS:    1499503  dHIT:     938779  dMISS:     560724  itACCESS:          0  itHIT:          0  itMISS:          0  dtACCESS:          0  dtHIT:          0  dtMISS:          0
LLC WRITE        ACCESS:     193572  HIT:     190763  MISS:       2809  iACCESS:          0  iHIT:          0  iMISS:          0  dACCESS:     193572  dHIT:     190763  dMISS:       2809  itACCESS:          0  itHIT:          0  itMISS:          0  dtACCESS:          0  dtHIT:          0  dtMISS:          0
LLC TRANSLATION  ACCESS:      96013  HIT:      25480  MISS:      70533  iACCESS:          0  iHIT:          0  iMISS:          0  dACCESS:          0  dHIT:          0  dMISS:          0  itACCESS:      20521  itHIT:       5846  itMISS:      14675  dtACCESS:      75492  dtHIT:      19634  dtMISS:      55858
LLC PREFETCH  REQUESTED:          0  ISSUED:          0  CROSSED:          0  USEFUL:          0  USELESS:          0
LLC AVERAGE iMISS LATENCY: 49.0971 cycles
LLC AVERAGE dMISS LATENCY: 101.306 cycles
LLC AVERAGE itMISS LATENCY: 1.87559 cycles
LLC AVERAGE dtMISS LATENCY: 7.53062 cycles
LLC PAGE CROSSINGS (TLB HIT):         0 
LLC PAGE CROSSINGS (TLB MISS):         0 
LLC AVERAGE MISS LATENCY: 159.81 cycles

PageTableWalker TOTAL       ACCESS:     112578  
PageTableWalker AVERAGE LATENCY: 4.40628 cycles
PageTableWalker TOTAL LATENCY: 496050 cycles

DRAM Statistics
Channel 0
 RQ ROW_BUFFER_HIT:     388589
  ROW_BUFFER_MISS:     959513
 AVG DBUS CONGESTED CYCLE:    3.64113
 WQ ROW_BUFFER_HIT:      34984
  ROW_BUFFER_MISS:      31913  FULL:          0

