last_page:0x200000000000000
VMEM_RES_CAP:0x100000
PAGE_SIZE:4096
LOG2_PAGE_SIZE:12
LOG2_PAGE_TABLE_SIZE:9
page_table_levels:5
WARNING: physical memory size is smaller than virtual memory size
FDiP enabled with aggresivity 16

*** ChampSim Multicore Out-of-Order Simulator ***

Warmup Instructions: 50000000
Simulation Instructions: 100000000
Number of CPUs: 1
Small page size: 4096
Large page size: 2097152

CPU 0 Bimodal branch predictor
Basic BTB sets: 1024 ways: 8 indirect buffer size: 4096 RAS size: 64
Instruction page size distrubution: 0
Loading instruction page size distribution from /home/bsc/bsc018186/scratch/itp_asplos25_AE/dump/srv771_ap.pdst
Data page size distrubution: 0
Loading data page size distribution from /home/bsc/bsc018186/scratch/itp_asplos25_AE/dump/srv771_ap.pdst
cpu0_L2C IP-based stride prefetcher
cpu0_L2C is using PTP replacement policy:
	TLB_STRESS_THRESHOLD:0
	PTE_EVICTION_RATIO:0
cpu0_L1D next line prefetcher
cpu0_STLB using iTP with max lru@8
cpu0_STLB using iTP with instr@0 and data@2
Init sat counter with 3 bits (max:50).
cpu0_L1I next line prefetcher
Off-chip DRAM Size: 4 GiB Channels: 1 Width: 64-bit Data Rate: 3200 MT/s
Heartbeat CPU 0 instructions: 10000003 cycles: 2500153 heartbeat IPC: 3.99976 cumulative IPC: 3.99976 (Simulation time: 0 hr 0 min 38 sec) 
Heartbeat CPU 0 instructions: 20000003 cycles: 5000153 heartbeat IPC: 4 cumulative IPC: 3.99988 (Simulation time: 0 hr 1 min 17 sec) 
Heartbeat CPU 0 instructions: 30000003 cycles: 7500230 heartbeat IPC: 3.99988 cumulative IPC: 3.99988 (Simulation time: 0 hr 1 min 58 sec) 
Heartbeat CPU 0 instructions: 40000002 cycles: 10000249 heartbeat IPC: 3.99997 cumulative IPC: 3.99991 (Simulation time: 0 hr 2 min 38 sec) 
Heartbeat CPU 0 instructions: 50000001 cycles: 12500345 heartbeat IPC: 3.99985 cumulative IPC: 3.99989 (Simulation time: 0 hr 3 min 19 sec) 
Warmup finished CPU 0 instructions: 50000001 cycles: 12500346 cumulative IPC: 3.99989 (Simulation time: 0 hr 3 min 19 sec) 

Warmup complete CPU 0 instructions: 50000001 cycles: 12500346 (Simulation time: 0 hr 3 min 19 sec) 

Heartbeat CPU 0 instructions: 60000000 cycles: 30526215 heartbeat IPC: 0.554759 cumulative IPC: 0.554759 (Simulation time: 0 hr 4 min 29 sec) 
Heartbeat CPU 0 instructions: 70000004 cycles: 49816723 heartbeat IPC: 0.51839 cumulative IPC: 0.535958 (Simulation time: 0 hr 5 min 40 sec) 
Heartbeat CPU 0 instructions: 80000000 cycles: 68186796 heartbeat IPC: 0.544364 cumulative IPC: 0.538731 (Simulation time: 0 hr 6 min 53 sec) 
Heartbeat CPU 0 instructions: 90000002 cycles: 87208240 heartbeat IPC: 0.525723 cumulative IPC: 0.535419 (Simulation time: 0 hr 8 min 9 sec) 
Heartbeat CPU 0 instructions: 100000002 cycles: 106418166 heartbeat IPC: 0.520565 cumulative IPC: 0.532381 (Simulation time: 0 hr 9 min 27 sec) 
*** Reached end of trace: /gpfs/projects/bsc18/MN4/bsc18/romol/ChampSim/traces/qualcomm_srv/srv771_ap.champsimtrace.xz
Heartbeat CPU 0 instructions: 110000000 cycles: 125219532 heartbeat IPC: 0.531877 cumulative IPC: 0.532297 (Simulation time: 0 hr 10 min 39 sec) 
Heartbeat CPU 0 instructions: 120000000 cycles: 144332358 heartbeat IPC: 0.523209 cumulative IPC: 0.530979 (Simulation time: 0 hr 11 min 56 sec) 
Heartbeat CPU 0 instructions: 130000004 cycles: 163316486 heartbeat IPC: 0.526757 cumulative IPC: 0.530448 (Simulation time: 0 hr 13 min 13 sec) 
Heartbeat CPU 0 instructions: 140000000 cycles: 182524981 heartbeat IPC: 0.520603 cumulative IPC: 0.529336 (Simulation time: 0 hr 14 min 29 sec) 
Heartbeat CPU 0 instructions: 150000002 cycles: 203071095 heartbeat IPC: 0.486711 cumulative IPC: 0.52474 (Simulation time: 0 hr 15 min 45 sec) 
Simulation finished CPU 0 instructions: 100000001 cycles: 190570750 cumulative IPC: 0.52474 (Simulation time: 0 hr 15 min 45 sec) 

Simulation complete CPU 0 instructions: 100000001 cycles: 190570750 (Simulation time: 0 hr 15 min 45 sec) 


ChampSim completed all CPUs

Saving instructions large page distribution to /home/bsc/bsc018186/scratch/itp_asplos25_AE/dump/srv771_ap.pdst...
Saving data large page distribution to /home/bsc/bsc018186/scratch/itp_asplos25_AE/dump/srv771_ap.pdst...
=== Simulation ===
CPU 0 runs /gpfs/projects/bsc18/MN4/bsc18/romol/ChampSim/traces/qualcomm_srv/srv771_ap.champsimtrace.xz

Region of Interest Statistics

CPU 0 cumulative IPC: 0.52474 instructions: 100000001 cycles: 190570750
CPU 0 Branch Prediction Accuracy: 80.1658% MPKI: 35.8759 Average ROB Occupancy at Mispredict: 10.7622
Branch type MPKI
BRANCH_DIRECT_JUMP: 1.33592
BRANCH_INDIRECT: 18.0412
BRANCH_CONDITIONAL: 11.5983
BRANCH_DIRECT_CALL: 2.51543
BRANCH_INDIRECT_CALL: 0.66576
BRANCH_RETURN: 1.7194

Instructions large pages: 0
Instructions small pages: 6153
Large page distribution for instructions: 0%

Data large pages: 0
Data small pages: 5064
Large page distribution for data: 0%

cpu0_L1I TOTAL       ACCESS:   36324557  HIT:   28000436  MISS:    8324121  iACCESS:   36324557  iHIT:   28000436  iMISS:    8324121  dACCESS:          0  dHIT:          0  dMISS:          0  itACCESS:          0  itHIT:          0  itMISS:          0  dtACCESS:          0  dtHIT:          0  dtMISS:          0
cpu0_L1I LOAD         ACCESS:   10616743  HIT:    8334045  MISS:    2282698  iACCESS:   10616743  iHIT:    8334045  iMISS:    2282698  dACCESS:          0  dHIT:          0  dMISS:          0  itACCESS:          0  itHIT:          0  itMISS:          0  dtACCESS:          0  dtHIT:          0  dtMISS:          0
cpu0_L1I RFO          ACCESS:          0  HIT:          0  MISS:          0  iACCESS:          0  iHIT:          0  iMISS:          0  dACCESS:          0  dHIT:          0  dMISS:          0  itACCESS:          0  itHIT:          0  itMISS:          0  dtACCESS:          0  dtHIT:          0  dtMISS:          0
cpu0_L1I PREFETCH     ACCESS:   25707814  HIT:   19666391  MISS:    6041423  iACCESS:   25707814  iHIT:   19666391  iMISS:    6041423  dACCESS:          0  dHIT:          0  dMISS:          0  itACCESS:          0  itHIT:          0  itMISS:          0  dtACCESS:          0  dtHIT:          0  dtMISS:          0
cpu0_L1I WRITE        ACCESS:          0  HIT:          0  MISS:          0  iACCESS:          0  iHIT:          0  iMISS:          0  dACCESS:          0  dHIT:          0  dMISS:          0  itACCESS:          0  itHIT:          0  itMISS:          0  dtACCESS:          0  dtHIT:          0  dtMISS:          0
cpu0_L1I TRANSLATION  ACCESS:          0  HIT:          0  MISS:          0  iACCESS:          0  iHIT:          0  iMISS:          0  dACCESS:          0  dHIT:          0  dMISS:          0  itACCESS:          0  itHIT:          0  itMISS:          0  dtACCESS:          0  dtHIT:          0  dtMISS:          0
cpu0_L1I PREFETCH  REQUESTED:   28139567  ISSUED:   28138919  CROSSED:          0  USEFUL:    2017366  USELESS:     657701
cpu0_L1I AVERAGE iMISS LATENCY: 18.9526 cycles
cpu0_L1I AVERAGE dMISS LATENCY: 0 cycles
cpu0_L1I AVERAGE itMISS LATENCY: 0 cycles
cpu0_L1I AVERAGE dtMISS LATENCY: 0 cycles
cpu0_L1I PAGE CROSSINGS (TLB HIT):         0 
cpu0_L1I PAGE CROSSINGS (TLB MISS):         0 
cpu0_L1I AVERAGE MISS LATENCY: 18.9526 cycles
cpu0_ITLB TOTAL       ACCESS:   30368780  HIT:   28417152  MISS:    1951628  iACCESS:   30368780  iHIT:   28417152  iMISS:    1951628  dACCESS:          0  dHIT:          0  dMISS:          0  itACCESS:          0  itHIT:          0  itMISS:          0  dtACCESS:          0  dtHIT:          0  dtMISS:          0
cpu0_ITLB LOAD         ACCESS:   30368780  HIT:   28417152  MISS:    1951628  iACCESS:   30368780  iHIT:   28417152  iMISS:    1951628  dACCESS:          0  dHIT:          0  dMISS:          0  itACCESS:          0  itHIT:          0  itMISS:          0  dtACCESS:          0  dtHIT:          0  dtMISS:          0
cpu0_ITLB RFO          ACCESS:          0  HIT:          0  MISS:          0  iACCESS:          0  iHIT:          0  iMISS:          0  dACCESS:          0  dHIT:          0  dMISS:          0  itACCESS:          0  itHIT:          0  itMISS:          0  dtACCESS:          0  dtHIT:          0  dtMISS:          0
cpu0_ITLB PREFETCH     ACCESS:          0  HIT:          0  MISS:          0  iACCESS:          0  iHIT:          0  iMISS:          0  dACCESS:          0  dHIT:          0  dMISS:          0  itACCESS:          0  itHIT:          0  itMISS:          0  dtACCESS:          0  dtHIT:          0  dtMISS:          0
cpu0_ITLB WRITE        ACCESS:          0  HIT:          0  MISS:          0  iACCESS:          0  iHIT:          0  iMISS:          0  dACCESS:          0  dHIT:          0  dMISS:          0  itACCESS:          0  itHIT:          0  itMISS:          0  dtACCESS:          0  dtHIT:          0  dtMISS:          0
cpu0_ITLB TRANSLATION  ACCESS:          0  HIT:          0  MISS:          0  iACCESS:          0  iHIT:          0  iMISS:          0  dACCESS:          0  dHIT:          0  dMISS:          0  itACCESS:          0  itHIT:          0  itMISS:          0  dtACCESS:          0  dtHIT:          0  dtMISS:          0
cpu0_ITLB PREFETCH  REQUESTED:          0  ISSUED:          0  CROSSED:          0  USEFUL:     329333  USELESS:      66171
cpu0_ITLB AVERAGE iMISS LATENCY: 3.60291 cycles
cpu0_ITLB AVERAGE dMISS LATENCY: 0 cycles
cpu0_ITLB AVERAGE itMISS LATENCY: 0 cycles
cpu0_ITLB AVERAGE dtMISS LATENCY: 0 cycles
cpu0_ITLB PAGE CROSSINGS (TLB HIT):         0 
cpu0_ITLB PAGE CROSSINGS (TLB MISS):         0 
cpu0_ITLB AVERAGE MISS LATENCY: 3.60291 cycles
cpu0_DTLB TOTAL       ACCESS:   27998425  HIT:   26032950  MISS:    1965475  iACCESS:          0  iHIT:          0  iMISS:          0  dACCESS:   27998425  dHIT:   26032950  dMISS:    1965475  itACCESS:          0  itHIT:          0  itMISS:          0  dtACCESS:          0  dtHIT:          0  dtMISS:          0
cpu0_DTLB LOAD         ACCESS:   27998425  HIT:   26032950  MISS:    1965475  iACCESS:          0  iHIT:          0  iMISS:          0  dACCESS:   27998425  dHIT:   26032950  dMISS:    1965475  itACCESS:          0  itHIT:          0  itMISS:          0  dtACCESS:          0  dtHIT:          0  dtMISS:          0
cpu0_DTLB RFO          ACCESS:          0  HIT:          0  MISS:          0  iACCESS:          0  iHIT:          0  iMISS:          0  dACCESS:          0  dHIT:          0  dMISS:          0  itACCESS:          0  itHIT:          0  itMISS:          0  dtACCESS:          0  dtHIT:          0  dtMISS:          0
cpu0_DTLB PREFETCH     ACCESS:          0  HIT:          0  MISS:          0  iACCESS:          0  iHIT:          0  iMISS:          0  dACCESS:          0  dHIT:          0  dMISS:          0  itACCESS:          0  itHIT:          0  itMISS:          0  dtACCESS:          0  dtHIT:          0  dtMISS:          0
cpu0_DTLB WRITE        ACCESS:          0  HIT:          0  MISS:          0  iACCESS:          0  iHIT:          0  iMISS:          0  dACCESS:          0  dHIT:          0  dMISS:          0  itACCESS:          0  itHIT:          0  itMISS:          0  dtACCESS:          0  dtHIT:          0  dtMISS:          0
cpu0_DTLB TRANSLATION  ACCESS:          0  HIT:          0  MISS:          0  iACCESS:          0  iHIT:          0  iMISS:          0  dACCESS:          0  dHIT:          0  dMISS:          0  itACCESS:          0  itHIT:          0  itMISS:          0  dtACCESS:          0  dtHIT:          0  dtMISS:          0
cpu0_DTLB PREFETCH  REQUESTED:          0  ISSUED:          0  CROSSED:          0  USEFUL:          0  USELESS:          0
cpu0_DTLB AVERAGE iMISS LATENCY: 0 cycles
cpu0_DTLB AVERAGE dMISS LATENCY: 15.9516 cycles
cpu0_DTLB AVERAGE itMISS LATENCY: 0 cycles
cpu0_DTLB AVERAGE dtMISS LATENCY: 0 cycles
cpu0_DTLB PAGE CROSSINGS (TLB HIT):         0 
cpu0_DTLB PAGE CROSSINGS (TLB MISS):         0 
cpu0_DTLB AVERAGE MISS LATENCY: 15.9516 cycles
cpu0_STLB TOTAL       ACCESS:    1619036  HIT:    1410065  MISS:     208971  iACCESS:     395513  iHIT:     366627  iMISS:      28886  dACCESS:    1223523  dHIT:    1043438  dMISS:     180085  itACCESS:          0  itHIT:          0  itMISS:          0  dtACCESS:          0  dtHIT:          0  dtMISS:          0
cpu0_STLB LOAD         ACCESS:    1619036  HIT:    1410065  MISS:     208971  iACCESS:     395513  iHIT:     366627  iMISS:      28886  dACCESS:    1223523  dHIT:    1043438  dMISS:     180085  itACCESS:          0  itHIT:          0  itMISS:          0  dtACCESS:          0  dtHIT:          0  dtMISS:          0
cpu0_STLB RFO          ACCESS:          0  HIT:          0  MISS:          0  iACCESS:          0  iHIT:          0  iMISS:          0  dACCESS:          0  dHIT:          0  dMISS:          0  itACCESS:          0  itHIT:          0  itMISS:          0  dtACCESS:          0  dtHIT:          0  dtMISS:          0
cpu0_STLB PREFETCH     ACCESS:          0  HIT:          0  MISS:          0  iACCESS:          0  iHIT:          0  iMISS:          0  dACCESS:          0  dHIT:          0  dMISS:          0  itACCESS:          0  itHIT:          0  itMISS:          0  dtACCESS:          0  dtHIT:          0  dtMISS:          0
cpu0_STLB WRITE        ACCESS:          0  HIT:          0  MISS:          0  iACCESS:          0  iHIT:          0  iMISS:          0  dACCESS:          0  dHIT:          0  dMISS:          0  itACCESS:          0  itHIT:          0  itMISS:          0  dtACCESS:          0  dtHIT:          0  dtMISS:          0
cpu0_STLB TRANSLATION  ACCESS:          0  HIT:          0  MISS:          0  iACCESS:          0  iHIT:          0  iMISS:          0  dACCESS:          0  dHIT:          0  dMISS:          0  itACCESS:          0  itHIT:          0  itMISS:          0  dtACCESS:          0  dtHIT:          0  dtMISS:          0
cpu0_STLB PREFETCH  REQUESTED:          0  ISSUED:          0  CROSSED:          0  USEFUL:          0  USELESS:          0
cpu0_STLB AVERAGE iMISS LATENCY: 18.8718 cycles
cpu0_STLB AVERAGE dMISS LATENCY: 103.084 cycles
cpu0_STLB AVERAGE itMISS LATENCY: 0 cycles
cpu0_STLB AVERAGE dtMISS LATENCY: 0 cycles
cpu0_STLB PAGE CROSSINGS (TLB HIT):         0 
cpu0_STLB PAGE CROSSINGS (TLB MISS):         0 
cpu0_STLB AVERAGE MISS LATENCY: 121.956 cycles
cpu0_L1D TOTAL       ACCESS:   42832831  HIT:   38527363  MISS:    4305468  iACCESS:          0  iHIT:          0  iMISS:          0  dACCESS:   42546050  dHIT:   38510781  dMISS:    4035269  itACCESS:      32688  itHIT:       2877  itMISS:      29811  dtACCESS:     254093  dtHIT:      13705  dtMISS:     240388
cpu0_L1D LOAD         ACCESS:   19480964  HIT:   17644556  MISS:    1836408  iACCESS:          0  iHIT:          0  iMISS:          0  dACCESS:   19480964  dHIT:   17644556  dMISS:    1836408  itACCESS:          0  itHIT:          0  itMISS:          0  dtACCESS:          0  dtHIT:          0  dtMISS:          0
cpu0_L1D RFO          ACCESS:          0  HIT:          0  MISS:          0  iACCESS:          0  iHIT:          0  iMISS:          0  dACCESS:          0  dHIT:          0  dMISS:          0  itACCESS:          0  itHIT:          0  itMISS:          0  dtACCESS:          0  dtHIT:          0  dtMISS:          0
cpu0_L1D PREFETCH     ACCESS:   12931377  HIT:   11188388  MISS:    1742989  iACCESS:          0  iHIT:          0  iMISS:          0  dACCESS:   12931377  dHIT:   11188388  dMISS:    1742989  itACCESS:          0  itHIT:          0  itMISS:          0  dtACCESS:          0  dtHIT:          0  dtMISS:          0
cpu0_L1D WRITE        ACCESS:   10133709  HIT:    9677837  MISS:     455872  iACCESS:          0  iHIT:          0  iMISS:          0  dACCESS:   10133709  dHIT:    9677837  dMISS:     455872  itACCESS:          0  itHIT:          0  itMISS:          0  dtACCESS:          0  dtHIT:          0  dtMISS:          0
cpu0_L1D TRANSLATION  ACCESS:     286781  HIT:      16582  MISS:     270199  iACCESS:          0  iHIT:          0  iMISS:          0  dACCESS:          0  dHIT:          0  dMISS:          0  itACCESS:      32688  itHIT:       2877  itMISS:      29811  dtACCESS:     254093  dtHIT:      13705  dtMISS:     240388
cpu0_L1D PREFETCH  REQUESTED:   19480964  ISSUED:   17304858  CROSSED:          0  USEFUL:     313240  USELESS:     704260
cpu0_L1D AVERAGE iMISS LATENCY: 0 cycles
cpu0_L1D AVERAGE dMISS LATENCY: 39.4755 cycles
cpu0_L1D AVERAGE itMISS LATENCY: 0.848065 cycles
cpu0_L1D AVERAGE dtMISS LATENCY: 4.43658 cycles
cpu0_L1D PAGE CROSSINGS (TLB HIT):         0 
cpu0_L1D PAGE CROSSINGS (TLB MISS):         0 
cpu0_L1D AVERAGE MISS LATENCY: 44.7601 cycles
cpu0_L2C TOTAL       ACCESS:    7338122  HIT:    1899415  MISS:    5438707  iACCESS:    3412633  iHIT:    1067703  iMISS:    2344930  dACCESS:    3666131  dHIT:     700672  dMISS:    2965459  itACCESS:      29811  itHIT:       8165  itMISS:      21646  dtACCESS:     229547  dtHIT:     122875  dtMISS:     106672
cpu0_L2C LOAD         ACCESS:    1726858  HIT:     328157  MISS:    1398701  iACCESS:     775227  iHIT:     196837  iMISS:     578390  dACCESS:     951631  dHIT:     131320  dMISS:     820311  itACCESS:          0  itHIT:          0  itMISS:          0  dtACCESS:          0  dtHIT:          0  dtMISS:          0
cpu0_L2C RFO          ACCESS:     161179  HIT:      22511  MISS:     138668  iACCESS:          0  iHIT:          0  iMISS:          0  dACCESS:     161179  dHIT:      22511  dMISS:     138668  itACCESS:          0  itHIT:          0  itMISS:          0  dtACCESS:          0  dtHIT:          0  dtMISS:          0
cpu0_L2C PREFETCH     ACCESS:    4917160  HIT:    1309670  MISS:    3607490  iACCESS:    2637406  iHIT:     870866  iMISS:    1766540  dACCESS:    2279754  dHIT:     438804  dMISS:    1840950  itACCESS:          0  itHIT:          0  itMISS:          0  dtACCESS:          0  dtHIT:          0  dtMISS:          0
cpu0_L2C WRITE        ACCESS:     273567  HIT:     108037  MISS:     165530  iACCESS:          0  iHIT:          0  iMISS:          0  dACCESS:     273567  dHIT:     108037  dMISS:     165530  itACCESS:          0  itHIT:          0  itMISS:          0  dtACCESS:          0  dtHIT:          0  dtMISS:          0
cpu0_L2C TRANSLATION  ACCESS:     259358  HIT:     131040  MISS:     128318  iACCESS:          0  iHIT:          0  iMISS:          0  dACCESS:          0  dHIT:          0  dMISS:          0  itACCESS:      29811  itHIT:       8165  itMISS:      21646  dtACCESS:     229547  dtHIT:     122875  dtMISS:     106672
cpu0_L2C PREFETCH  REQUESTED:    1533371  ISSUED:    1533362  CROSSED:          0  USEFUL:     429806  USELESS:     396648
cpu0_L2C AVERAGE iMISS LATENCY: 23.4356 cycles
cpu0_L2C AVERAGE dMISS LATENCY: 39.5109 cycles
cpu0_L2C AVERAGE itMISS LATENCY: 0.617852 cycles
cpu0_L2C AVERAGE dtMISS LATENCY: 3.11087 cycles
cpu0_L2C PAGE CROSSINGS (TLB HIT):         0 
cpu0_L2C PAGE CROSSINGS (TLB MISS):         0 
cpu0_L2C AVERAGE MISS LATENCY: 66.6751 cycles
LLC TOTAL       ACCESS:    5309883  HIT:    3649556  MISS:    1660327  iACCESS:    2266950  iHIT:    1695860  iMISS:     571090  dACCESS:    2914615  dHIT:    1921253  dMISS:     993362  itACCESS:      21646  itHIT:       5065  itMISS:      16581  dtACCESS:     106672  dtHIT:      27378  dtMISS:      79294
LLC LOAD         ACCESS:    1392656  HIT:    1022437  MISS:     370219  iACCESS:     577155  iHIT:     458762  iMISS:     118393  dACCESS:     815501  dHIT:     563675  dMISS:     251826  itACCESS:          0  itHIT:          0  itMISS:          0  dtACCESS:          0  dtHIT:          0  dtMISS:          0
LLC RFO          ACCESS:     138651  HIT:      79647  MISS:      59004  iACCESS:          0  iHIT:          0  iMISS:          0  dACCESS:     138651  dHIT:      79647  dMISS:      59004  itACCESS:          0  itHIT:          0  itMISS:          0  dtACCESS:          0  dtHIT:          0  dtMISS:          0
LLC PREFETCH     ACCESS:    3426253  HIT:    2293074  MISS:    1133179  iACCESS:    1689795  iHIT:    1237098  iMISS:     452697  dACCESS:    1736458  dHIT:    1055976  dMISS:     680482  itACCESS:          0  itHIT:          0  itMISS:          0  dtACCESS:          0  dtHIT:          0  dtMISS:          0
LLC WRITE        ACCESS:     224005  HIT:     221955  MISS:       2050  iACCESS:          0  iHIT:          0  iMISS:          0  dACCESS:     224005  dHIT:     221955  dMISS:       2050  itACCESS:          0  itHIT:          0  itMISS:          0  dtACCESS:          0  dtHIT:          0  dtMISS:          0
LLC TRANSLATION  ACCESS:     128318  HIT:      32443  MISS:      95875  iACCESS:          0  iHIT:          0  iMISS:          0  dACCESS:          0  dHIT:          0  dMISS:          0  itACCESS:      21646  itHIT:       5065  itMISS:      16581  dtACCESS:     106672  dtHIT:      27378  dtMISS:      79294
LLC PREFETCH  REQUESTED:          0  ISSUED:          0  CROSSED:          0  USEFUL:          0  USELESS:          0
LLC AVERAGE iMISS LATENCY: 50.308 cycles
LLC AVERAGE dMISS LATENCY: 99.0683 cycles
LLC AVERAGE itMISS LATENCY: 1.76703 cycles
LLC AVERAGE dtMISS LATENCY: 8.92593 cycles
LLC PAGE CROSSINGS (TLB HIT):         0 
LLC PAGE CROSSINGS (TLB MISS):         0 
LLC AVERAGE MISS LATENCY: 160.07 cycles

PageTableWalker TOTAL       ACCESS:      98935  
PageTableWalker AVERAGE LATENCY: 4.06187 cycles
PageTableWalker TOTAL LATENCY: 401861 cycles

DRAM Statistics
Channel 0
 RQ ROW_BUFFER_HIT:     480164
  ROW_BUFFER_MISS:    1160366
 AVG DBUS CONGESTED CYCLE:    3.64416
 WQ ROW_BUFFER_HIT:      37427
  ROW_BUFFER_MISS:      34413  FULL:          0

