last_page:0x200000000000000
VMEM_RES_CAP:0x100000
PAGE_SIZE:4096
LOG2_PAGE_SIZE:12
LOG2_PAGE_TABLE_SIZE:9
page_table_levels:5
WARNING: physical memory size is smaller than virtual memory size
FDiP enabled with aggresivity 16

*** ChampSim Multicore Out-of-Order Simulator ***

Warmup Instructions: 50000000
Simulation Instructions: 100000000
Number of CPUs: 1
Small page size: 4096
Large page size: 2097152

CPU 0 Bimodal branch predictor
Basic BTB sets: 1024 ways: 8 indirect buffer size: 4096 RAS size: 64
Instruction page size distrubution: 0
Loading instruction page size distribution from /home/bsc/bsc018186/scratch/itp_asplos25_AE/dump/srv742_ap.pdst
Data page size distrubution: 0
Loading data page size distribution from /home/bsc/bsc018186/scratch/itp_asplos25_AE/dump/srv742_ap.pdst
cpu0_L2C IP-based stride prefetcher
cpu0_L2C is using PTP replacement policy:
	TLB_STRESS_THRESHOLD:0
	PTE_EVICTION_RATIO:0
cpu0_L1D next line prefetcher
CHiRPing...
cpu0_L1I next line prefetcher
Off-chip DRAM Size: 4 GiB Channels: 1 Width: 64-bit Data Rate: 3200 MT/s
Heartbeat CPU 0 instructions: 10000000 cycles: 2933147 heartbeat IPC: 3.40931 cumulative IPC: 3.40931 (Simulation time: 0 hr 0 min 40 sec) 
Heartbeat CPU 0 instructions: 20000002 cycles: 5442995 heartbeat IPC: 3.98431 cumulative IPC: 3.67445 (Simulation time: 0 hr 1 min 15 sec) 
Heartbeat CPU 0 instructions: 30000000 cycles: 7943404 heartbeat IPC: 3.99935 cumulative IPC: 3.77672 (Simulation time: 0 hr 1 min 56 sec) 
Heartbeat CPU 0 instructions: 40000000 cycles: 10444021 heartbeat IPC: 3.99902 cumulative IPC: 3.82995 (Simulation time: 0 hr 2 min 36 sec) 
Heartbeat CPU 0 instructions: 50000003 cycles: 13186182 heartbeat IPC: 3.64676 cumulative IPC: 3.79185 (Simulation time: 0 hr 3 min 18 sec) 
Warmup finished CPU 0 instructions: 50000003 cycles: 13186183 cumulative IPC: 3.79185 (Simulation time: 0 hr 3 min 18 sec) 

Warmup complete CPU 0 instructions: 50000003 cycles: 13186183 (Simulation time: 0 hr 3 min 18 sec) 

Heartbeat CPU 0 instructions: 60000000 cycles: 35274965 heartbeat IPC: 0.452719 cumulative IPC: 0.452719 (Simulation time: 0 hr 4 min 33 sec) 
Heartbeat CPU 0 instructions: 70000004 cycles: 56901496 heartbeat IPC: 0.462396 cumulative IPC: 0.457506 (Simulation time: 0 hr 5 min 46 sec) 
Heartbeat CPU 0 instructions: 80000004 cycles: 72325247 heartbeat IPC: 0.648351 cumulative IPC: 0.507279 (Simulation time: 0 hr 6 min 57 sec) 
Heartbeat CPU 0 instructions: 90000004 cycles: 93888629 heartbeat IPC: 0.46375 cumulative IPC: 0.495648 (Simulation time: 0 hr 8 min 12 sec) 
Heartbeat CPU 0 instructions: 100000003 cycles: 102507161 heartbeat IPC: 1.1603 cumulative IPC: 0.559779 (Simulation time: 0 hr 9 min 2 sec) 
*** Reached end of trace: /gpfs/projects/bsc18/MN4/bsc18/romol/ChampSim/traces/qualcomm_srv/srv742_ap.champsimtrace.xz
Heartbeat CPU 0 instructions: 110000002 cycles: 115276146 heartbeat IPC: 0.783148 cumulative IPC: 0.587717 (Simulation time: 0 hr 10 min 8 sec) 
Heartbeat CPU 0 instructions: 120000003 cycles: 122853833 heartbeat IPC: 1.31967 cumulative IPC: 0.638293 (Simulation time: 0 hr 10 min 59 sec) 
Heartbeat CPU 0 instructions: 130000003 cycles: 143444186 heartbeat IPC: 0.485665 cumulative IPC: 0.614166 (Simulation time: 0 hr 12 min 12 sec) 
Heartbeat CPU 0 instructions: 140000003 cycles: 168678624 heartbeat IPC: 0.396284 cumulative IPC: 0.578807 (Simulation time: 0 hr 13 min 34 sec) 
Heartbeat CPU 0 instructions: 150000002 cycles: 186950875 heartbeat IPC: 0.547278 cumulative IPC: 0.575491 (Simulation time: 0 hr 14 min 47 sec) 
Simulation finished CPU 0 instructions: 100000001 cycles: 173765109 cumulative IPC: 0.57549 (Simulation time: 0 hr 14 min 47 sec) 

Simulation complete CPU 0 instructions: 100000001 cycles: 173765109 (Simulation time: 0 hr 14 min 47 sec) 


ChampSim completed all CPUs

Saving instructions large page distribution to /home/bsc/bsc018186/scratch/itp_asplos25_AE/dump/srv742_ap.pdst...
Saving data large page distribution to /home/bsc/bsc018186/scratch/itp_asplos25_AE/dump/srv742_ap.pdst...
=== Simulation ===
CPU 0 runs /gpfs/projects/bsc18/MN4/bsc18/romol/ChampSim/traces/qualcomm_srv/srv742_ap.champsimtrace.xz

Region of Interest Statistics

CPU 0 cumulative IPC: 0.57549 instructions: 100000001 cycles: 173765109
CPU 0 Branch Prediction Accuracy: 83.9656% MPKI: 32.2638 Average ROB Occupancy at Mispredict: 12.4996
Branch type MPKI
BRANCH_DIRECT_JUMP: 0.83198
BRANCH_INDIRECT: 16.9722
BRANCH_CONDITIONAL: 10.7476
BRANCH_DIRECT_CALL: 1.50647
BRANCH_INDIRECT_CALL: 1.05262
BRANCH_RETURN: 1.15293

Instructions large pages: 0
Instructions small pages: 1649
Large page distribution for instructions: 0%

Data large pages: 0
Data small pages: 6640
Large page distribution for data: 0%

cpu0_L1I TOTAL       ACCESS:   30233032  HIT:   24827384  MISS:    5405648  iACCESS:   30233032  iHIT:   24827384  iMISS:    5405648  dACCESS:          0  dHIT:          0  dMISS:          0  itACCESS:          0  itHIT:          0  itMISS:          0  dtACCESS:          0  dtHIT:          0  dtMISS:          0
cpu0_L1I LOAD         ACCESS:    6442344  HIT:    4933609  MISS:    1508735  iACCESS:    6442344  iHIT:    4933609  iMISS:    1508735  dACCESS:          0  dHIT:          0  dMISS:          0  itACCESS:          0  itHIT:          0  itMISS:          0  dtACCESS:          0  dtHIT:          0  dtMISS:          0
cpu0_L1I RFO          ACCESS:          0  HIT:          0  MISS:          0  iACCESS:          0  iHIT:          0  iMISS:          0  dACCESS:          0  dHIT:          0  dMISS:          0  itACCESS:          0  itHIT:          0  itMISS:          0  dtACCESS:          0  dtHIT:          0  dtMISS:          0
cpu0_L1I PREFETCH     ACCESS:   23790688  HIT:   19893775  MISS:    3896913  iACCESS:   23790688  iHIT:   19893775  iMISS:    3896913  dACCESS:          0  dHIT:          0  dMISS:          0  itACCESS:          0  itHIT:          0  itMISS:          0  dtACCESS:          0  dtHIT:          0  dtMISS:          0
cpu0_L1I WRITE        ACCESS:          0  HIT:          0  MISS:          0  iACCESS:          0  iHIT:          0  iMISS:          0  dACCESS:          0  dHIT:          0  dMISS:          0  itACCESS:          0  itHIT:          0  itMISS:          0  dtACCESS:          0  dtHIT:          0  dtMISS:          0
cpu0_L1I TRANSLATION  ACCESS:          0  HIT:          0  MISS:          0  iACCESS:          0  iHIT:          0  iMISS:          0  dACCESS:          0  dHIT:          0  dMISS:          0  itACCESS:          0  itHIT:          0  itMISS:          0  dtACCESS:          0  dtHIT:          0  dtMISS:          0
cpu0_L1I PREFETCH  REQUESTED:   25030491  ISSUED:   25029663  CROSSED:          0  USEFUL:    1267430  USELESS:     479985
cpu0_L1I AVERAGE iMISS LATENCY: 22.0362 cycles
cpu0_L1I AVERAGE dMISS LATENCY: 0 cycles
cpu0_L1I AVERAGE itMISS LATENCY: 0 cycles
cpu0_L1I AVERAGE dtMISS LATENCY: 0 cycles
cpu0_L1I PAGE CROSSINGS (TLB HIT):         0 
cpu0_L1I PAGE CROSSINGS (TLB MISS):         0 
cpu0_L1I AVERAGE MISS LATENCY: 22.0362 cycles
cpu0_ITLB TOTAL       ACCESS:   25936453  HIT:   24679450  MISS:    1257003  iACCESS:   25936453  iHIT:   24679450  iMISS:    1257003  dACCESS:          0  dHIT:          0  dMISS:          0  itACCESS:          0  itHIT:          0  itMISS:          0  dtACCESS:          0  dtHIT:          0  dtMISS:          0
cpu0_ITLB LOAD         ACCESS:   25936453  HIT:   24679450  MISS:    1257003  iACCESS:   25936453  iHIT:   24679450  iMISS:    1257003  dACCESS:          0  dHIT:          0  dMISS:          0  itACCESS:          0  itHIT:          0  itMISS:          0  dtACCESS:          0  dtHIT:          0  dtMISS:          0
cpu0_ITLB RFO          ACCESS:          0  HIT:          0  MISS:          0  iACCESS:          0  iHIT:          0  iMISS:          0  dACCESS:          0  dHIT:          0  dMISS:          0  itACCESS:          0  itHIT:          0  itMISS:          0  dtACCESS:          0  dtHIT:          0  dtMISS:          0
cpu0_ITLB PREFETCH     ACCESS:          0  HIT:          0  MISS:          0  iACCESS:          0  iHIT:          0  iMISS:          0  dACCESS:          0  dHIT:          0  dMISS:          0  itACCESS:          0  itHIT:          0  itMISS:          0  dtACCESS:          0  dtHIT:          0  dtMISS:          0
cpu0_ITLB WRITE        ACCESS:          0  HIT:          0  MISS:          0  iACCESS:          0  iHIT:          0  iMISS:          0  dACCESS:          0  dHIT:          0  dMISS:          0  itACCESS:          0  itHIT:          0  itMISS:          0  dtACCESS:          0  dtHIT:          0  dtMISS:          0
cpu0_ITLB TRANSLATION  ACCESS:          0  HIT:          0  MISS:          0  iACCESS:          0  iHIT:          0  iMISS:          0  dACCESS:          0  dHIT:          0  dMISS:          0  itACCESS:          0  itHIT:          0  itMISS:          0  dtACCESS:          0  dtHIT:          0  dtMISS:          0
cpu0_ITLB PREFETCH  REQUESTED:          0  ISSUED:          0  CROSSED:          0  USEFUL:     217263  USELESS:      43052
cpu0_ITLB AVERAGE iMISS LATENCY: 6.15122 cycles
cpu0_ITLB AVERAGE dMISS LATENCY: 0 cycles
cpu0_ITLB AVERAGE itMISS LATENCY: 0 cycles
cpu0_ITLB AVERAGE dtMISS LATENCY: 0 cycles
cpu0_ITLB PAGE CROSSINGS (TLB HIT):         0 
cpu0_ITLB PAGE CROSSINGS (TLB MISS):         0 
cpu0_ITLB AVERAGE MISS LATENCY: 6.15122 cycles
cpu0_DTLB TOTAL       ACCESS:   32527722  HIT:   27373033  MISS:    5154689  iACCESS:          0  iHIT:          0  iMISS:          0  dACCESS:   32527722  dHIT:   27373033  dMISS:    5154689  itACCESS:          0  itHIT:          0  itMISS:          0  dtACCESS:          0  dtHIT:          0  dtMISS:          0
cpu0_DTLB LOAD         ACCESS:   32527722  HIT:   27373033  MISS:    5154689  iACCESS:          0  iHIT:          0  iMISS:          0  dACCESS:   32527722  dHIT:   27373033  dMISS:    5154689  itACCESS:          0  itHIT:          0  itMISS:          0  dtACCESS:          0  dtHIT:          0  dtMISS:          0
cpu0_DTLB RFO          ACCESS:          0  HIT:          0  MISS:          0  iACCESS:          0  iHIT:          0  iMISS:          0  dACCESS:          0  dHIT:          0  dMISS:          0  itACCESS:          0  itHIT:          0  itMISS:          0  dtACCESS:          0  dtHIT:          0  dtMISS:          0
cpu0_DTLB PREFETCH     ACCESS:          0  HIT:          0  MISS:          0  iACCESS:          0  iHIT:          0  iMISS:          0  dACCESS:          0  dHIT:          0  dMISS:          0  itACCESS:          0  itHIT:          0  itMISS:          0  dtACCESS:          0  dtHIT:          0  dtMISS:          0
cpu0_DTLB WRITE        ACCESS:          0  HIT:          0  MISS:          0  iACCESS:          0  iHIT:          0  iMISS:          0  dACCESS:          0  dHIT:          0  dMISS:          0  itACCESS:          0  itHIT:          0  itMISS:          0  dtACCESS:          0  dtHIT:          0  dtMISS:          0
cpu0_DTLB TRANSLATION  ACCESS:          0  HIT:          0  MISS:          0  iACCESS:          0  iHIT:          0  iMISS:          0  dACCESS:          0  dHIT:          0  dMISS:          0  itACCESS:          0  itHIT:          0  itMISS:          0  dtACCESS:          0  dtHIT:          0  dtMISS:          0
cpu0_DTLB PREFETCH  REQUESTED:          0  ISSUED:          0  CROSSED:          0  USEFUL:          0  USELESS:          0
cpu0_DTLB AVERAGE iMISS LATENCY: 0 cycles
cpu0_DTLB AVERAGE dMISS LATENCY: 7.29222 cycles
cpu0_DTLB AVERAGE itMISS LATENCY: 0 cycles
cpu0_DTLB AVERAGE dtMISS LATENCY: 0 cycles
cpu0_DTLB PAGE CROSSINGS (TLB HIT):         0 
cpu0_DTLB PAGE CROSSINGS (TLB MISS):         0 
cpu0_DTLB AVERAGE MISS LATENCY: 7.29222 cycles
cpu0_STLB TOTAL       ACCESS:    2920986  HIT:    2742487  MISS:     178499  iACCESS:     260324  iHIT:     200013  iMISS:      60311  dACCESS:    2660662  dHIT:    2542474  dMISS:     118188  itACCESS:          0  itHIT:          0  itMISS:          0  dtACCESS:          0  dtHIT:          0  dtMISS:          0
cpu0_STLB LOAD         ACCESS:    2920986  HIT:    2742487  MISS:     178499  iACCESS:     260324  iHIT:     200013  iMISS:      60311  dACCESS:    2660662  dHIT:    2542474  dMISS:     118188  itACCESS:          0  itHIT:          0  itMISS:          0  dtACCESS:          0  dtHIT:          0  dtMISS:          0
cpu0_STLB RFO          ACCESS:          0  HIT:          0  MISS:          0  iACCESS:          0  iHIT:          0  iMISS:          0  dACCESS:          0  dHIT:          0  dMISS:          0  itACCESS:          0  itHIT:          0  itMISS:          0  dtACCESS:          0  dtHIT:          0  dtMISS:          0
cpu0_STLB PREFETCH     ACCESS:          0  HIT:          0  MISS:          0  iACCESS:          0  iHIT:          0  iMISS:          0  dACCESS:          0  dHIT:          0  dMISS:          0  itACCESS:          0  itHIT:          0  itMISS:          0  dtACCESS:          0  dtHIT:          0  dtMISS:          0
cpu0_STLB WRITE        ACCESS:          0  HIT:          0  MISS:          0  iACCESS:          0  iHIT:          0  iMISS:          0  dACCESS:          0  dHIT:          0  dMISS:          0  itACCESS:          0  itHIT:          0  itMISS:          0  dtACCESS:          0  dtHIT:          0  dtMISS:          0
cpu0_STLB TRANSLATION  ACCESS:          0  HIT:          0  MISS:          0  iACCESS:          0  iHIT:          0  iMISS:          0  dACCESS:          0  dHIT:          0  dMISS:          0  itACCESS:          0  itHIT:          0  itMISS:          0  dtACCESS:          0  dtHIT:          0  dtMISS:          0
cpu0_STLB PREFETCH  REQUESTED:          0  ISSUED:          0  CROSSED:          0  USEFUL:          0  USELESS:          0
cpu0_STLB AVERAGE iMISS LATENCY: 31.6738 cycles
cpu0_STLB AVERAGE dMISS LATENCY: 89.524 cycles
cpu0_STLB AVERAGE itMISS LATENCY: 0 cycles
cpu0_STLB AVERAGE dtMISS LATENCY: 0 cycles
cpu0_STLB PAGE CROSSINGS (TLB HIT):         0 
cpu0_STLB PAGE CROSSINGS (TLB MISS):         0 
cpu0_STLB AVERAGE MISS LATENCY: 121.198 cycles
cpu0_L1D TOTAL       ACCESS:   50929496  HIT:   41577477  MISS:    9352019  iACCESS:          0  iHIT:          0  iMISS:          0  dACCESS:   50692348  dHIT:   41559226  dMISS:    9133122  itACCESS:      67658  itHIT:       8768  itMISS:      58890  dtACCESS:     169490  dtHIT:       9483  dtMISS:     160007
cpu0_L1D LOAD         ACCESS:   25902778  HIT:   20289111  MISS:    5613667  iACCESS:          0  iHIT:          0  iMISS:          0  dACCESS:   25902778  dHIT:   20289111  dMISS:    5613667  itACCESS:          0  itHIT:          0  itMISS:          0  dtACCESS:          0  dtHIT:          0  dtMISS:          0
cpu0_L1D RFO          ACCESS:          0  HIT:          0  MISS:          0  iACCESS:          0  iHIT:          0  iMISS:          0  dACCESS:          0  dHIT:          0  dMISS:          0  itACCESS:          0  itHIT:          0  itMISS:          0  dtACCESS:          0  dtHIT:          0  dtMISS:          0
cpu0_L1D PREFETCH     ACCESS:   15173395  HIT:   12233662  MISS:    2939733  iACCESS:          0  iHIT:          0  iMISS:          0  dACCESS:   15173395  dHIT:   12233662  dMISS:    2939733  itACCESS:          0  itHIT:          0  itMISS:          0  dtACCESS:          0  dtHIT:          0  dtMISS:          0
cpu0_L1D WRITE        ACCESS:    9616175  HIT:    9036453  MISS:     579722  iACCESS:          0  iHIT:          0  iMISS:          0  dACCESS:    9616175  dHIT:    9036453  dMISS:     579722  itACCESS:          0  itHIT:          0  itMISS:          0  dtACCESS:          0  dtHIT:          0  dtMISS:          0
cpu0_L1D TRANSLATION  ACCESS:     237148  HIT:      18251  MISS:     218897  iACCESS:          0  iHIT:          0  iMISS:          0  dACCESS:          0  dHIT:          0  dMISS:          0  itACCESS:      67658  itHIT:       8768  itMISS:      58890  dtACCESS:     169490  dtHIT:       9483  dtMISS:     160007
cpu0_L1D PREFETCH  REQUESTED:   25902778  ISSUED:   19175474  CROSSED:          0  USEFUL:     260690  USELESS:     659958
cpu0_L1D AVERAGE iMISS LATENCY: 0 cycles
cpu0_L1D AVERAGE dMISS LATENCY: 23.5175 cycles
cpu0_L1D AVERAGE itMISS LATENCY: 0.538102 cycles
cpu0_L1D AVERAGE dtMISS LATENCY: 1.51035 cycles
cpu0_L1D PAGE CROSSINGS (TLB HIT):         0 
cpu0_L1D PAGE CROSSINGS (TLB MISS):         0 
cpu0_L1D AVERAGE MISS LATENCY: 25.566 cycles
cpu0_L2C TOTAL       ACCESS:    7881410  HIT:    2744613  MISS:    5136797  iACCESS:    2239124  iHIT:     724737  iMISS:    1514387  dACCESS:    5442923  dHIT:    1921018  dMISS:    3521905  itACCESS:      56497  itHIT:      27547  itMISS:      28950  dtACCESS:     142866  dtHIT:      71311  dtMISS:      71555
cpu0_L2C LOAD         ACCESS:    3841712  HIT:    1522296  MISS:    2319416  iACCESS:     510199  iHIT:     148448  iMISS:     361751  dACCESS:    3331513  dHIT:    1373848  dMISS:    1957665  itACCESS:          0  itHIT:          0  itMISS:          0  dtACCESS:          0  dtHIT:          0  dtMISS:          0
cpu0_L2C RFO          ACCESS:     170882  HIT:      34537  MISS:     136345  iACCESS:          0  iHIT:          0  iMISS:          0  dACCESS:     170882  dHIT:      34537  dMISS:     136345  itACCESS:          0  itHIT:          0  itMISS:          0  dtACCESS:          0  dtHIT:          0  dtMISS:          0
cpu0_L2C PREFETCH     ACCESS:    3445079  HIT:     983080  MISS:    2461999  iACCESS:    1728925  iHIT:     576289  iMISS:    1152636  dACCESS:    1716154  dHIT:     406791  dMISS:    1309363  itACCESS:          0  itHIT:          0  itMISS:          0  dtACCESS:          0  dtHIT:          0  dtMISS:          0
cpu0_L2C WRITE        ACCESS:     224374  HIT:     105842  MISS:     118532  iACCESS:          0  iHIT:          0  iMISS:          0  dACCESS:     224374  dHIT:     105842  dMISS:     118532  itACCESS:          0  itHIT:          0  itMISS:          0  dtACCESS:          0  dtHIT:          0  dtMISS:          0
cpu0_L2C TRANSLATION  ACCESS:     199363  HIT:      98858  MISS:     100505  iACCESS:          0  iHIT:          0  iMISS:          0  dACCESS:          0  dHIT:          0  dMISS:          0  itACCESS:      56497  itHIT:      27547  itMISS:      28950  dtACCESS:     142866  dtHIT:      71311  dtMISS:      71555
cpu0_L2C PREFETCH  REQUESTED:     928486  ISSUED:     928480  CROSSED:          0  USEFUL:     230611  USELESS:     271370
cpu0_L2C AVERAGE iMISS LATENCY: 19.3933 cycles
cpu0_L2C AVERAGE dMISS LATENCY: 43.6763 cycles
cpu0_L2C AVERAGE itMISS LATENCY: 0.874751 cycles
cpu0_L2C AVERAGE dtMISS LATENCY: 2.48449 cycles
cpu0_L2C PAGE CROSSINGS (TLB HIT):         0 
cpu0_L2C PAGE CROSSINGS (TLB MISS):         0 
cpu0_L2C AVERAGE MISS LATENCY: 66.4288 cycles
LLC TOTAL       ACCESS:    5066732  HIT:    3578918  MISS:    1487814  iACCESS:    1467087  iHIT:     997479  iMISS:     469608  dACCESS:    3499140  dHIT:    2562717  dMISS:     936423  itACCESS:      28950  itHIT:       6569  itMISS:      22381  dtACCESS:      71555  dtHIT:      12153  dtMISS:      59402
LLC LOAD         ACCESS:    2313681  HIT:    1937742  MISS:     375939  iACCESS:     360949  iHIT:     264954  iMISS:      95995  dACCESS:    1952732  dHIT:    1672788  dMISS:     279944  itACCESS:          0  itHIT:          0  itMISS:          0  dtACCESS:          0  dtHIT:          0  dtMISS:          0
LLC RFO          ACCESS:     136344  HIT:      72785  MISS:      63559  iACCESS:          0  iHIT:          0  iMISS:          0  dACCESS:     136344  dHIT:      72785  dMISS:      63559  itACCESS:          0  itHIT:          0  itMISS:          0  dtACCESS:          0  dtHIT:          0  dtMISS:          0
LLC PREFETCH     ACCESS:    2334807  HIT:    1369923  MISS:     964884  iACCESS:    1106138  iHIT:     732525  iMISS:     373613  dACCESS:    1228669  dHIT:     637398  dMISS:     591271  itACCESS:          0  itHIT:          0  itMISS:          0  dtACCESS:          0  dtHIT:          0  dtMISS:          0
LLC WRITE        ACCESS:     181395  HIT:     179746  MISS:       1649  iACCESS:          0  iHIT:          0  iMISS:          0  dACCESS:     181395  dHIT:     179746  dMISS:       1649  itACCESS:          0  itHIT:          0  itMISS:          0  dtACCESS:          0  dtHIT:          0  dtMISS:          0
LLC TRANSLATION  ACCESS:     100505  HIT:      18722  MISS:      81783  iACCESS:          0  iHIT:          0  iMISS:          0  dACCESS:          0  dHIT:          0  dMISS:          0  itACCESS:      28950  itHIT:       6569  itMISS:      22381  dtACCESS:      71555  dtHIT:      12153  dtMISS:      59402
LLC PREFETCH  REQUESTED:          0  ISSUED:          0  CROSSED:          0  USEFUL:          0  USELESS:          0
LLC AVERAGE iMISS LATENCY: 47.7894 cycles
LLC AVERAGE dMISS LATENCY: 108.433 cycles
LLC AVERAGE itMISS LATENCY: 2.63668 cycles
LLC AVERAGE dtMISS LATENCY: 7.62957 cycles
LLC PAGE CROSSINGS (TLB HIT):         0 
LLC PAGE CROSSINGS (TLB MISS):         0 
LLC AVERAGE MISS LATENCY: 166.489 cycles

PageTableWalker TOTAL       ACCESS:      87197  
PageTableWalker AVERAGE LATENCY: 4.03974 cycles
PageTableWalker TOTAL LATENCY: 352253 cycles

DRAM Statistics
Channel 0
 RQ ROW_BUFFER_HIT:     409672
  ROW_BUFFER_MISS:    1064147
 AVG DBUS CONGESTED CYCLE:    3.65566
 WQ ROW_BUFFER_HIT:      37845
  ROW_BUFFER_MISS:      41605  FULL:          0

