last_page:0x200000000000000
VMEM_RES_CAP:0x100000
PAGE_SIZE:4096
LOG2_PAGE_SIZE:12
LOG2_PAGE_TABLE_SIZE:9
page_table_levels:5
WARNING: physical memory size is smaller than virtual memory size
FDiP enabled with aggresivity 16

*** ChampSim Multicore Out-of-Order Simulator ***

Warmup Instructions: 50000000
Simulation Instructions: 100000000
Number of CPUs: 1
Small page size: 4096
Large page size: 2097152

CPU 0 Bimodal branch predictor
Basic BTB sets: 1024 ways: 8 indirect buffer size: 4096 RAS size: 64
Instruction page size distrubution: 0
Loading instruction page size distribution from /home/bsc/bsc018186/scratch/itp_asplos25_AE/dump/srv764_ap.pdst
Data page size distrubution: 0
Loading data page size distribution from /home/bsc/bsc018186/scratch/itp_asplos25_AE/dump/srv764_ap.pdst
cpu0_L2C IP-based stride prefetcher
cpu0_L1D next line prefetcher
cpu0_L1I next line prefetcher
Off-chip DRAM Size: 4 GiB Channels: 1 Width: 64-bit Data Rate: 3200 MT/s
Heartbeat CPU 0 instructions: 10000001 cycles: 2500115 heartbeat IPC: 3.99982 cumulative IPC: 3.99982 (Simulation time: 0 hr 0 min 34 sec) 
Heartbeat CPU 0 instructions: 20000001 cycles: 5000262 heartbeat IPC: 3.99977 cumulative IPC: 3.9998 (Simulation time: 0 hr 1 min 11 sec) 
Heartbeat CPU 0 instructions: 30000001 cycles: 7500373 heartbeat IPC: 3.99983 cumulative IPC: 3.99981 (Simulation time: 0 hr 1 min 48 sec) 
Heartbeat CPU 0 instructions: 40000002 cycles: 10000383 heartbeat IPC: 3.99999 cumulative IPC: 3.99985 (Simulation time: 0 hr 2 min 25 sec) 
Heartbeat CPU 0 instructions: 50000000 cycles: 12886394 heartbeat IPC: 3.46499 cumulative IPC: 3.88007 (Simulation time: 0 hr 3 min 3 sec) 
Warmup finished CPU 0 instructions: 50000000 cycles: 12886395 cumulative IPC: 3.88007 (Simulation time: 0 hr 3 min 3 sec) 

Warmup complete CPU 0 instructions: 50000000 cycles: 12886395 (Simulation time: 0 hr 3 min 3 sec) 

Heartbeat CPU 0 instructions: 60000003 cycles: 26768344 heartbeat IPC: 0.720361 cumulative IPC: 0.720361 (Simulation time: 0 hr 4 min 1 sec) 
Heartbeat CPU 0 instructions: 70000001 cycles: 48593773 heartbeat IPC: 0.458182 cumulative IPC: 0.560109 (Simulation time: 0 hr 5 min 10 sec) 
Heartbeat CPU 0 instructions: 80000001 cycles: 69609507 heartbeat IPC: 0.475834 cumulative IPC: 0.528885 (Simulation time: 0 hr 6 min 20 sec) 
Heartbeat CPU 0 instructions: 90000002 cycles: 90728215 heartbeat IPC: 0.473514 cumulative IPC: 0.513863 (Simulation time: 0 hr 7 min 34 sec) 
Heartbeat CPU 0 instructions: 100000000 cycles: 111480346 heartbeat IPC: 0.481879 cumulative IPC: 0.507131 (Simulation time: 0 hr 8 min 50 sec) 
*** Reached end of trace: /gpfs/projects/bsc18/MN4/bsc18/romol/ChampSim/traces/qualcomm_srv/srv764_ap.champsimtrace.xz
Heartbeat CPU 0 instructions: 110000004 cycles: 131636655 heartbeat IPC: 0.496123 cumulative IPC: 0.505263 (Simulation time: 0 hr 9 min 57 sec) 
Heartbeat CPU 0 instructions: 120000002 cycles: 152543673 heartbeat IPC: 0.478309 cumulative IPC: 0.501228 (Simulation time: 0 hr 11 min 5 sec) 
Heartbeat CPU 0 instructions: 130000000 cycles: 174163856 heartbeat IPC: 0.462531 cumulative IPC: 0.49604 (Simulation time: 0 hr 12 min 14 sec) 
Heartbeat CPU 0 instructions: 140000003 cycles: 195675592 heartbeat IPC: 0.464863 cumulative IPC: 0.492371 (Simulation time: 0 hr 13 min 22 sec) 
Heartbeat CPU 0 instructions: 150000004 cycles: 211166425 heartbeat IPC: 0.645544 cumulative IPC: 0.504338 (Simulation time: 0 hr 14 min 23 sec) 
Simulation finished CPU 0 instructions: 100000004 cycles: 198280031 cumulative IPC: 0.504338 (Simulation time: 0 hr 14 min 23 sec) 

Simulation complete CPU 0 instructions: 100000004 cycles: 198280031 (Simulation time: 0 hr 14 min 23 sec) 


ChampSim completed all CPUs

Saving instructions large page distribution to /home/bsc/bsc018186/scratch/itp_asplos25_AE/dump/srv764_ap.pdst...
Saving data large page distribution to /home/bsc/bsc018186/scratch/itp_asplos25_AE/dump/srv764_ap.pdst...
=== Simulation ===
CPU 0 runs /gpfs/projects/bsc18/MN4/bsc18/romol/ChampSim/traces/qualcomm_srv/srv764_ap.champsimtrace.xz

Region of Interest Statistics

CPU 0 cumulative IPC: 0.504338 instructions: 100000004 cycles: 198280031
CPU 0 Branch Prediction Accuracy: 82.3659% MPKI: 33.5305 Average ROB Occupancy at Mispredict: 11.4641
Branch type MPKI
BRANCH_DIRECT_JUMP: 1.21738
BRANCH_INDIRECT: 16.9293
BRANCH_CONDITIONAL: 10.8073
BRANCH_DIRECT_CALL: 2.28574
BRANCH_INDIRECT_CALL: 0.6881
BRANCH_RETURN: 1.60283

Instructions large pages: 0
Instructions small pages: 5930
Large page distribution for instructions: 0%

Data large pages: 0
Data small pages: 4775
Large page distribution for data: 0%

cpu0_L1I TOTAL       ACCESS:   34752994  HIT:   27505824  MISS:    7247170  iACCESS:   34752994  iHIT:   27505824  iMISS:    7247170  dACCESS:          0  dHIT:          0  dMISS:          0  itACCESS:          0  itHIT:          0  itMISS:          0  dtACCESS:          0  dtHIT:          0  dtMISS:          0
cpu0_L1I LOAD         ACCESS:    9422320  HIT:    7430148  MISS:    1992172  iACCESS:    9422320  iHIT:    7430148  iMISS:    1992172  dACCESS:          0  dHIT:          0  dMISS:          0  itACCESS:          0  itHIT:          0  itMISS:          0  dtACCESS:          0  dtHIT:          0  dtMISS:          0
cpu0_L1I RFO          ACCESS:          0  HIT:          0  MISS:          0  iACCESS:          0  iHIT:          0  iMISS:          0  dACCESS:          0  dHIT:          0  dMISS:          0  itACCESS:          0  itHIT:          0  itMISS:          0  dtACCESS:          0  dtHIT:          0  dtMISS:          0
cpu0_L1I PREFETCH     ACCESS:   25330674  HIT:   20075676  MISS:    5254998  iACCESS:   25330674  iHIT:   20075676  iMISS:    5254998  dACCESS:          0  dHIT:          0  dMISS:          0  itACCESS:          0  itHIT:          0  itMISS:          0  dtACCESS:          0  dtHIT:          0  dtMISS:          0
cpu0_L1I WRITE        ACCESS:          0  HIT:          0  MISS:          0  iACCESS:          0  iHIT:          0  iMISS:          0  dACCESS:          0  dHIT:          0  dMISS:          0  itACCESS:          0  itHIT:          0  itMISS:          0  dtACCESS:          0  dtHIT:          0  dtMISS:          0
cpu0_L1I TRANSLATION  ACCESS:          0  HIT:          0  MISS:          0  iACCESS:          0  iHIT:          0  iMISS:          0  dACCESS:          0  dHIT:          0  dMISS:          0  itACCESS:          0  itHIT:          0  itMISS:          0  dtACCESS:          0  dtHIT:          0  dtMISS:          0
cpu0_L1I PREFETCH  REQUESTED:   27508744  ISSUED:   27508744  CROSSED:          0  USEFUL:    1815205  USELESS:     604903
cpu0_L1I AVERAGE iMISS LATENCY: 20.1442 cycles
cpu0_L1I AVERAGE dMISS LATENCY: 0 cycles
cpu0_L1I AVERAGE itMISS LATENCY: 0 cycles
cpu0_L1I AVERAGE dtMISS LATENCY: 0 cycles
cpu0_L1I PAGE CROSSINGS (TLB HIT):         0 
cpu0_L1I PAGE CROSSINGS (TLB MISS):         0 
cpu0_L1I AVERAGE MISS LATENCY: 20.1442 cycles
cpu0_ITLB TOTAL       ACCESS:   29371744  HIT:   27572009  MISS:    1799735  iACCESS:   29371744  iHIT:   27572009  iMISS:    1799735  dACCESS:          0  dHIT:          0  dMISS:          0  itACCESS:          0  itHIT:          0  itMISS:          0  dtACCESS:          0  dtHIT:          0  dtMISS:          0
cpu0_ITLB LOAD         ACCESS:   29371744  HIT:   27572009  MISS:    1799735  iACCESS:   29371744  iHIT:   27572009  iMISS:    1799735  dACCESS:          0  dHIT:          0  dMISS:          0  itACCESS:          0  itHIT:          0  itMISS:          0  dtACCESS:          0  dtHIT:          0  dtMISS:          0
cpu0_ITLB RFO          ACCESS:          0  HIT:          0  MISS:          0  iACCESS:          0  iHIT:          0  iMISS:          0  dACCESS:          0  dHIT:          0  dMISS:          0  itACCESS:          0  itHIT:          0  itMISS:          0  dtACCESS:          0  dtHIT:          0  dtMISS:          0
cpu0_ITLB PREFETCH     ACCESS:          0  HIT:          0  MISS:          0  iACCESS:          0  iHIT:          0  iMISS:          0  dACCESS:          0  dHIT:          0  dMISS:          0  itACCESS:          0  itHIT:          0  itMISS:          0  dtACCESS:          0  dtHIT:          0  dtMISS:          0
cpu0_ITLB WRITE        ACCESS:          0  HIT:          0  MISS:          0  iACCESS:          0  iHIT:          0  iMISS:          0  dACCESS:          0  dHIT:          0  dMISS:          0  itACCESS:          0  itHIT:          0  itMISS:          0  dtACCESS:          0  dtHIT:          0  dtMISS:          0
cpu0_ITLB TRANSLATION  ACCESS:          0  HIT:          0  MISS:          0  iACCESS:          0  iHIT:          0  iMISS:          0  dACCESS:          0  dHIT:          0  dMISS:          0  itACCESS:          0  itHIT:          0  itMISS:          0  dtACCESS:          0  dtHIT:          0  dtMISS:          0
cpu0_ITLB PREFETCH  REQUESTED:          0  ISSUED:          0  CROSSED:          0  USEFUL:     304203  USELESS:      57589
cpu0_ITLB AVERAGE iMISS LATENCY: 8.03056 cycles
cpu0_ITLB AVERAGE dMISS LATENCY: 0 cycles
cpu0_ITLB AVERAGE itMISS LATENCY: 0 cycles
cpu0_ITLB AVERAGE dtMISS LATENCY: 0 cycles
cpu0_ITLB PAGE CROSSINGS (TLB HIT):         0 
cpu0_ITLB PAGE CROSSINGS (TLB MISS):         0 
cpu0_ITLB AVERAGE MISS LATENCY: 8.03056 cycles
cpu0_DTLB TOTAL       ACCESS:   29317346  HIT:   25733955  MISS:    3583391  iACCESS:          0  iHIT:          0  iMISS:          0  dACCESS:   29317346  dHIT:   25733955  dMISS:    3583391  itACCESS:          0  itHIT:          0  itMISS:          0  dtACCESS:          0  dtHIT:          0  dtMISS:          0
cpu0_DTLB LOAD         ACCESS:   29317346  HIT:   25733955  MISS:    3583391  iACCESS:          0  iHIT:          0  iMISS:          0  dACCESS:   29317346  dHIT:   25733955  dMISS:    3583391  itACCESS:          0  itHIT:          0  itMISS:          0  dtACCESS:          0  dtHIT:          0  dtMISS:          0
cpu0_DTLB RFO          ACCESS:          0  HIT:          0  MISS:          0  iACCESS:          0  iHIT:          0  iMISS:          0  dACCESS:          0  dHIT:          0  dMISS:          0  itACCESS:          0  itHIT:          0  itMISS:          0  dtACCESS:          0  dtHIT:          0  dtMISS:          0
cpu0_DTLB PREFETCH     ACCESS:          0  HIT:          0  MISS:          0  iACCESS:          0  iHIT:          0  iMISS:          0  dACCESS:          0  dHIT:          0  dMISS:          0  itACCESS:          0  itHIT:          0  itMISS:          0  dtACCESS:          0  dtHIT:          0  dtMISS:          0
cpu0_DTLB WRITE        ACCESS:          0  HIT:          0  MISS:          0  iACCESS:          0  iHIT:          0  iMISS:          0  dACCESS:          0  dHIT:          0  dMISS:          0  itACCESS:          0  itHIT:          0  itMISS:          0  dtACCESS:          0  dtHIT:          0  dtMISS:          0
cpu0_DTLB TRANSLATION  ACCESS:          0  HIT:          0  MISS:          0  iACCESS:          0  iHIT:          0  iMISS:          0  dACCESS:          0  dHIT:          0  dMISS:          0  itACCESS:          0  itHIT:          0  itMISS:          0  dtACCESS:          0  dtHIT:          0  dtMISS:          0
cpu0_DTLB PREFETCH  REQUESTED:          0  ISSUED:          0  CROSSED:          0  USEFUL:          0  USELESS:          0
cpu0_DTLB AVERAGE iMISS LATENCY: 0 cycles
cpu0_DTLB AVERAGE dMISS LATENCY: 12.3414 cycles
cpu0_DTLB AVERAGE itMISS LATENCY: 0 cycles
cpu0_DTLB AVERAGE dtMISS LATENCY: 0 cycles
cpu0_DTLB PAGE CROSSINGS (TLB HIT):         0 
cpu0_DTLB PAGE CROSSINGS (TLB MISS):         0 
cpu0_DTLB AVERAGE MISS LATENCY: 12.3414 cycles
cpu0_STLB TOTAL       ACCESS:    2312371  HIT:    2093903  MISS:     218468  iACCESS:     361790  iHIT:     278265  iMISS:      83525  dACCESS:    1950581  dHIT:    1815638  dMISS:     134943  itACCESS:          0  itHIT:          0  itMISS:          0  dtACCESS:          0  dtHIT:          0  dtMISS:          0
cpu0_STLB LOAD         ACCESS:    2312371  HIT:    2093903  MISS:     218468  iACCESS:     361790  iHIT:     278265  iMISS:      83525  dACCESS:    1950581  dHIT:    1815638  dMISS:     134943  itACCESS:          0  itHIT:          0  itMISS:          0  dtACCESS:          0  dtHIT:          0  dtMISS:          0
cpu0_STLB RFO          ACCESS:          0  HIT:          0  MISS:          0  iACCESS:          0  iHIT:          0  iMISS:          0  dACCESS:          0  dHIT:          0  dMISS:          0  itACCESS:          0  itHIT:          0  itMISS:          0  dtACCESS:          0  dtHIT:          0  dtMISS:          0
cpu0_STLB PREFETCH     ACCESS:          0  HIT:          0  MISS:          0  iACCESS:          0  iHIT:          0  iMISS:          0  dACCESS:          0  dHIT:          0  dMISS:          0  itACCESS:          0  itHIT:          0  itMISS:          0  dtACCESS:          0  dtHIT:          0  dtMISS:          0
cpu0_STLB WRITE        ACCESS:          0  HIT:          0  MISS:          0  iACCESS:          0  iHIT:          0  iMISS:          0  dACCESS:          0  dHIT:          0  dMISS:          0  itACCESS:          0  itHIT:          0  itMISS:          0  dtACCESS:          0  dtHIT:          0  dtMISS:          0
cpu0_STLB TRANSLATION  ACCESS:          0  HIT:          0  MISS:          0  iACCESS:          0  iHIT:          0  iMISS:          0  dACCESS:          0  dHIT:          0  dMISS:          0  itACCESS:          0  itHIT:          0  itMISS:          0  dtACCESS:          0  dtHIT:          0  dtMISS:          0
cpu0_STLB PREFETCH  REQUESTED:          0  ISSUED:          0  CROSSED:          0  USEFUL:          0  USELESS:          0
cpu0_STLB AVERAGE iMISS LATENCY: 52.918 cycles
cpu0_STLB AVERAGE dMISS LATENCY: 130.211 cycles
cpu0_STLB AVERAGE itMISS LATENCY: 0 cycles
cpu0_STLB AVERAGE dtMISS LATENCY: 0 cycles
cpu0_STLB PAGE CROSSINGS (TLB HIT):         0 
cpu0_STLB PAGE CROSSINGS (TLB MISS):         0 
cpu0_STLB AVERAGE MISS LATENCY: 183.129 cycles
cpu0_L1D TOTAL       ACCESS:   44573605  HIT:   38776359  MISS:    5797246  iACCESS:          0  iHIT:          0  iMISS:          0  dACCESS:   44289683  dHIT:   38751071  dMISS:    5538612  itACCESS:      89709  itHIT:      14365  itMISS:      75344  dtACCESS:     194213  dtHIT:      10923  dtMISS:     183290
cpu0_L1D LOAD         ACCESS:   21152273  HIT:   17977748  MISS:    3174525  iACCESS:          0  iHIT:          0  iMISS:          0  dACCESS:   21152273  dHIT:   17977748  dMISS:    3174525  itACCESS:          0  itHIT:          0  itMISS:          0  dtACCESS:          0  dtHIT:          0  dtMISS:          0
cpu0_L1D RFO          ACCESS:          0  HIT:          0  MISS:          0  iACCESS:          0  iHIT:          0  iMISS:          0  dACCESS:          0  dHIT:          0  dMISS:          0  itACCESS:          0  itHIT:          0  itMISS:          0  dtACCESS:          0  dtHIT:          0  dtMISS:          0
cpu0_L1D PREFETCH     ACCESS:   13233990  HIT:   11336719  MISS:    1897271  iACCESS:          0  iHIT:          0  iMISS:          0  dACCESS:   13233990  dHIT:   11336719  dMISS:    1897271  itACCESS:          0  itHIT:          0  itMISS:          0  dtACCESS:          0  dtHIT:          0  dtMISS:          0
cpu0_L1D WRITE        ACCESS:    9903420  HIT:    9436604  MISS:     466816  iACCESS:          0  iHIT:          0  iMISS:          0  dACCESS:    9903420  dHIT:    9436604  dMISS:     466816  itACCESS:          0  itHIT:          0  itMISS:          0  dtACCESS:          0  dtHIT:          0  dtMISS:          0
cpu0_L1D TRANSLATION  ACCESS:     283922  HIT:      25288  MISS:     258634  iACCESS:          0  iHIT:          0  iMISS:          0  dACCESS:          0  dHIT:          0  dMISS:          0  itACCESS:      89709  itHIT:      14365  itMISS:      75344  dtACCESS:     194213  dtHIT:      10923  dtMISS:     183290
cpu0_L1D PREFETCH  REQUESTED:   21152273  ISSUED:   17454886  CROSSED:          0  USEFUL:     284405  USELESS:     762655
cpu0_L1D AVERAGE iMISS LATENCY: 0 cycles
cpu0_L1D AVERAGE dMISS LATENCY: 30.6714 cycles
cpu0_L1D AVERAGE itMISS LATENCY: 1.86724 cycles
cpu0_L1D AVERAGE dtMISS LATENCY: 4.56542 cycles
cpu0_L1D PAGE CROSSINGS (TLB HIT):         0 
cpu0_L1D PAGE CROSSINGS (TLB MISS):         0 
cpu0_L1D AVERAGE MISS LATENCY: 37.104 cycles
cpu0_L2C TOTAL       ACCESS:    8120766  HIT:    4835492  MISS:    3285274  iACCESS:    3095839  iHIT:    1870517  iMISS:    1225322  dACCESS:    4780858  dHIT:    2930777  dMISS:    1850081  itACCESS:      75344  itHIT:      12484  itMISS:      62860  dtACCESS:     168725  dtHIT:      21714  dtMISS:     147011
cpu0_L2C LOAD         ACCESS:    2864706  HIT:    2116488  MISS:     748218  iACCESS:     710491  iHIT:     454880  iMISS:     255611  dACCESS:    2154215  dHIT:    1661608  dMISS:     492607  itACCESS:          0  itHIT:          0  itMISS:          0  dtACCESS:          0  dtHIT:          0  dtMISS:          0
cpu0_L2C RFO          ACCESS:     167472  HIT:      73696  MISS:      93776  iACCESS:          0  iHIT:          0  iMISS:          0  dACCESS:     167472  dHIT:      73696  dMISS:      93776  itACCESS:          0  itHIT:          0  itMISS:          0  dtACCESS:          0  dtHIT:          0  dtMISS:          0
cpu0_L2C PREFETCH     ACCESS:    4589891  HIT:    2357524  MISS:    2232367  iACCESS:    2385348  iHIT:    1415637  iMISS:     969711  dACCESS:    2204543  dHIT:     941887  dMISS:    1262656  itACCESS:          0  itHIT:          0  itMISS:          0  dtACCESS:          0  dtHIT:          0  dtMISS:          0
cpu0_L2C WRITE        ACCESS:     254628  HIT:     253586  MISS:       1042  iACCESS:          0  iHIT:          0  iMISS:          0  dACCESS:     254628  dHIT:     253586  dMISS:       1042  itACCESS:          0  itHIT:          0  itMISS:          0  dtACCESS:          0  dtHIT:          0  dtMISS:          0
cpu0_L2C TRANSLATION  ACCESS:     244069  HIT:      34198  MISS:     209871  iACCESS:          0  iHIT:          0  iMISS:          0  dACCESS:          0  dHIT:          0  dMISS:          0  itACCESS:      75344  itHIT:      12484  itMISS:      62860  dtACCESS:     168725  dtHIT:      21714  dtMISS:     147011
cpu0_L2C PREFETCH  REQUESTED:    1393053  ISSUED:    1393044  CROSSED:          0  USEFUL:     324641  USELESS:     277356
cpu0_L2C AVERAGE iMISS LATENCY: 36.0587 cycles
cpu0_L2C AVERAGE dMISS LATENCY: 62.6449 cycles
cpu0_L2C AVERAGE itMISS LATENCY: 3.06868 cycles
cpu0_L2C AVERAGE dtMISS LATENCY: 7.54617 cycles
cpu0_L2C PAGE CROSSINGS (TLB HIT):         0 
cpu0_L2C PAGE CROSSINGS (TLB MISS):         0 
cpu0_L2C AVERAGE MISS LATENCY: 109.319 cycles
LLC TOTAL       ACCESS:    3243152  HIT:    1380475  MISS:    1862677  iACCESS:    1150091  iHIT:     499537  iMISS:     650554  dACCESS:    1883190  dHIT:     838642  dMISS:    1044548  itACCESS:      62860  itHIT:      11841  itMISS:      51019  dtACCESS:     147011  dtHIT:      30455  dtMISS:     116556
LLC LOAD         ACCESS:     742140  HIT:     336854  MISS:     405286  iACCESS:     254423  iHIT:     114496  iMISS:     139927  dACCESS:     487717  dHIT:     222358  dMISS:     265359  itACCESS:          0  itHIT:          0  itMISS:          0  dtACCESS:          0  dtHIT:          0  dtMISS:          0
LLC RFO          ACCESS:      93767  HIT:      33746  MISS:      60021  iACCESS:          0  iHIT:          0  iMISS:          0  dACCESS:      93767  dHIT:      33746  dMISS:      60021  itACCESS:          0  itHIT:          0  itMISS:          0  dtACCESS:          0  dtHIT:          0  dtMISS:          0
LLC PREFETCH     ACCESS:    2060487  HIT:     838349  MISS:    1222138  iACCESS:     895668  iHIT:     385041  iMISS:     510627  dACCESS:    1164819  dHIT:     453308  dMISS:     711511  itACCESS:          0  itHIT:          0  itMISS:          0  dtACCESS:          0  dtHIT:          0  dtMISS:          0
LLC WRITE        ACCESS:     136887  HIT:     129230  MISS:       7657  iACCESS:          0  iHIT:          0  iMISS:          0  dACCESS:     136887  dHIT:     129230  dMISS:       7657  itACCESS:          0  itHIT:          0  itMISS:          0  dtACCESS:          0  dtHIT:          0  dtMISS:          0
LLC TRANSLATION  ACCESS:     209871  HIT:      42296  MISS:     167575  iACCESS:          0  iHIT:          0  iMISS:          0  dACCESS:          0  dHIT:          0  dMISS:          0  itACCESS:      62860  itHIT:      11841  itMISS:      51019  dtACCESS:     147011  dtHIT:      30455  dtMISS:     116556
LLC PREFETCH  REQUESTED:          0  ISSUED:          0  CROSSED:          0  USEFUL:          0  USELESS:          0
LLC AVERAGE iMISS LATENCY: 51.504 cycles
LLC AVERAGE dMISS LATENCY: 92.9923 cycles
LLC AVERAGE itMISS LATENCY: 4.74617 cycles
LLC AVERAGE dtMISS LATENCY: 11.755 cycles
LLC PAGE CROSSINGS (TLB HIT):         0 
LLC PAGE CROSSINGS (TLB MISS):         0 
LLC AVERAGE MISS LATENCY: 160.998 cycles

PageTableWalker TOTAL       ACCESS:     105185  
PageTableWalker AVERAGE LATENCY: 5.0347 cycles
PageTableWalker TOTAL LATENCY: 529574 cycles

DRAM Statistics
Channel 0
 RQ ROW_BUFFER_HIT:     507595
  ROW_BUFFER_MISS:    1336406
 AVG DBUS CONGESTED CYCLE:    3.63967
 WQ ROW_BUFFER_HIT:      36051
  ROW_BUFFER_MISS:      23843  FULL:          0

