last_page:0x200000000000000
VMEM_RES_CAP:0x100000
PAGE_SIZE:4096
LOG2_PAGE_SIZE:12
LOG2_PAGE_TABLE_SIZE:9
page_table_levels:5
WARNING: physical memory size is smaller than virtual memory size
FDiP enabled with aggresivity 16

*** ChampSim Multicore Out-of-Order Simulator ***

Warmup Instructions: 50000000
Simulation Instructions: 100000000
Number of CPUs: 1
Small page size: 4096
Large page size: 2097152

CPU 0 Bimodal branch predictor
Basic BTB sets: 1024 ways: 8 indirect buffer size: 4096 RAS size: 64
Instruction page size distrubution: 0
Loading instruction page size distribution from /home/bsc/bsc018186/scratch/itp_asplos25_AE/dump/srv715_ap.pdst
Data page size distrubution: 0
Loading data page size distribution from /home/bsc/bsc018186/scratch/itp_asplos25_AE/dump/srv715_ap.pdst
cpu0_L2C IP-based stride prefetcher
cpu0_L1D next line prefetcher
cpu0_L1I next line prefetcher
Off-chip DRAM Size: 4 GiB Channels: 1 Width: 64-bit Data Rate: 3200 MT/s
Heartbeat CPU 0 instructions: 10000000 cycles: 2500929 heartbeat IPC: 3.99852 cumulative IPC: 3.99852 (Simulation time: 0 hr 0 min 35 sec) 
Heartbeat CPU 0 instructions: 20000002 cycles: 5002694 heartbeat IPC: 3.99718 cumulative IPC: 3.99785 (Simulation time: 0 hr 1 min 11 sec) 
Heartbeat CPU 0 instructions: 30000001 cycles: 7502928 heartbeat IPC: 3.99963 cumulative IPC: 3.99844 (Simulation time: 0 hr 1 min 48 sec) 
Heartbeat CPU 0 instructions: 40000003 cycles: 10003002 heartbeat IPC: 3.99989 cumulative IPC: 3.9988 (Simulation time: 0 hr 2 min 26 sec) 
Heartbeat CPU 0 instructions: 50000002 cycles: 12503116 heartbeat IPC: 3.99982 cumulative IPC: 3.99901 (Simulation time: 0 hr 3 min 3 sec) 
Warmup finished CPU 0 instructions: 50000002 cycles: 12503117 cumulative IPC: 3.99901 (Simulation time: 0 hr 3 min 3 sec) 

Warmup complete CPU 0 instructions: 50000002 cycles: 12503117 (Simulation time: 0 hr 3 min 3 sec) 

Heartbeat CPU 0 instructions: 60000002 cycles: 34162797 heartbeat IPC: 0.461688 cumulative IPC: 0.461688 (Simulation time: 0 hr 4 min 12 sec) 
Heartbeat CPU 0 instructions: 70000000 cycles: 55148551 heartbeat IPC: 0.476514 cumulative IPC: 0.468984 (Simulation time: 0 hr 5 min 20 sec) 
Heartbeat CPU 0 instructions: 80000000 cycles: 76015312 heartbeat IPC: 0.479232 cumulative IPC: 0.472351 (Simulation time: 0 hr 6 min 28 sec) 
Heartbeat CPU 0 instructions: 90000001 cycles: 81782573 heartbeat IPC: 1.73393 cumulative IPC: 0.577372 (Simulation time: 0 hr 7 min 16 sec) 
Heartbeat CPU 0 instructions: 100000000 cycles: 103299312 heartbeat IPC: 0.464755 cumulative IPC: 0.550684 (Simulation time: 0 hr 8 min 25 sec) 
*** Reached end of trace: /gpfs/projects/bsc18/MN4/bsc18/romol/ChampSim/traces/qualcomm_srv/srv715_ap.champsimtrace.xz
Heartbeat CPU 0 instructions: 110000004 cycles: 126122810 heartbeat IPC: 0.438146 cumulative IPC: 0.528078 (Simulation time: 0 hr 9 min 36 sec) 
Heartbeat CPU 0 instructions: 120000000 cycles: 148118770 heartbeat IPC: 0.454629 cumulative IPC: 0.516165 (Simulation time: 0 hr 10 min 45 sec) 
Heartbeat CPU 0 instructions: 130000001 cycles: 171145005 heartbeat IPC: 0.434288 cumulative IPC: 0.504281 (Simulation time: 0 hr 11 min 56 sec) 
Heartbeat CPU 0 instructions: 140000003 cycles: 193542976 heartbeat IPC: 0.44647 cumulative IPC: 0.497129 (Simulation time: 0 hr 13 min 6 sec) 
Heartbeat CPU 0 instructions: 150000001 cycles: 216565558 heartbeat IPC: 0.434357 cumulative IPC: 0.490047 (Simulation time: 0 hr 14 min 17 sec) 
Simulation finished CPU 0 instructions: 100000001 cycles: 204062443 cumulative IPC: 0.490047 (Simulation time: 0 hr 14 min 17 sec) 

Simulation complete CPU 0 instructions: 100000001 cycles: 204062443 (Simulation time: 0 hr 14 min 17 sec) 


ChampSim completed all CPUs

Saving instructions large page distribution to /home/bsc/bsc018186/scratch/itp_asplos25_AE/dump/srv715_ap.pdst...
Saving data large page distribution to /home/bsc/bsc018186/scratch/itp_asplos25_AE/dump/srv715_ap.pdst...
=== Simulation ===
CPU 0 runs /gpfs/projects/bsc18/MN4/bsc18/romol/ChampSim/traces/qualcomm_srv/srv715_ap.champsimtrace.xz

Region of Interest Statistics

CPU 0 cumulative IPC: 0.490047 instructions: 100000001 cycles: 204062443
CPU 0 Branch Prediction Accuracy: 82.4813% MPKI: 33.9338 Average ROB Occupancy at Mispredict: 11.2228
Branch type MPKI
BRANCH_DIRECT_JUMP: 1.25524
BRANCH_INDIRECT: 17.3725
BRANCH_CONDITIONAL: 10.6191
BRANCH_DIRECT_CALL: 2.32746
BRANCH_INDIRECT_CALL: 0.69896
BRANCH_RETURN: 1.66061

Instructions large pages: 0
Instructions small pages: 1202
Large page distribution for instructions: 0%

Data large pages: 0
Data small pages: 5167
Large page distribution for data: 0%

cpu0_L1I TOTAL       ACCESS:   35072298  HIT:   27870282  MISS:    7202016  iACCESS:   35072298  iHIT:   27870282  iMISS:    7202016  dACCESS:          0  dHIT:          0  dMISS:          0  itACCESS:          0  itHIT:          0  itMISS:          0  dtACCESS:          0  dtHIT:          0  dtMISS:          0
cpu0_L1I LOAD         ACCESS:    9369265  HIT:    7377686  MISS:    1991579  iACCESS:    9369265  iHIT:    7377686  iMISS:    1991579  dACCESS:          0  dHIT:          0  dMISS:          0  itACCESS:          0  itHIT:          0  itMISS:          0  dtACCESS:          0  dtHIT:          0  dtMISS:          0
cpu0_L1I RFO          ACCESS:          0  HIT:          0  MISS:          0  iACCESS:          0  iHIT:          0  iMISS:          0  dACCESS:          0  dHIT:          0  dMISS:          0  itACCESS:          0  itHIT:          0  itMISS:          0  dtACCESS:          0  dtHIT:          0  dtMISS:          0
cpu0_L1I PREFETCH     ACCESS:   25703033  HIT:   20492596  MISS:    5210437  iACCESS:   25703033  iHIT:   20492596  iMISS:    5210437  dACCESS:          0  dHIT:          0  dMISS:          0  itACCESS:          0  itHIT:          0  itMISS:          0  dtACCESS:          0  dtHIT:          0  dtMISS:          0
cpu0_L1I WRITE        ACCESS:          0  HIT:          0  MISS:          0  iACCESS:          0  iHIT:          0  iMISS:          0  dACCESS:          0  dHIT:          0  dMISS:          0  itACCESS:          0  itHIT:          0  itMISS:          0  dtACCESS:          0  dtHIT:          0  dtMISS:          0
cpu0_L1I TRANSLATION  ACCESS:          0  HIT:          0  MISS:          0  iACCESS:          0  iHIT:          0  iMISS:          0  dACCESS:          0  dHIT:          0  dMISS:          0  itACCESS:          0  itHIT:          0  itMISS:          0  dtACCESS:          0  dtHIT:          0  dtMISS:          0
cpu0_L1I PREFETCH  REQUESTED:   27916180  ISSUED:   27916180  CROSSED:          0  USEFUL:    1798795  USELESS:     611390
cpu0_L1I AVERAGE iMISS LATENCY: 20.6121 cycles
cpu0_L1I AVERAGE dMISS LATENCY: 0 cycles
cpu0_L1I AVERAGE itMISS LATENCY: 0 cycles
cpu0_L1I AVERAGE dtMISS LATENCY: 0 cycles
cpu0_L1I PAGE CROSSINGS (TLB HIT):         0 
cpu0_L1I PAGE CROSSINGS (TLB MISS):         0 
cpu0_L1I AVERAGE MISS LATENCY: 20.6121 cycles
cpu0_ITLB TOTAL       ACCESS:   29609561  HIT:   27837345  MISS:    1772216  iACCESS:   29609561  iHIT:   27837345  iMISS:    1772216  dACCESS:          0  dHIT:          0  dMISS:          0  itACCESS:          0  itHIT:          0  itMISS:          0  dtACCESS:          0  dtHIT:          0  dtMISS:          0
cpu0_ITLB LOAD         ACCESS:   29609561  HIT:   27837345  MISS:    1772216  iACCESS:   29609561  iHIT:   27837345  iMISS:    1772216  dACCESS:          0  dHIT:          0  dMISS:          0  itACCESS:          0  itHIT:          0  itMISS:          0  dtACCESS:          0  dtHIT:          0  dtMISS:          0
cpu0_ITLB RFO          ACCESS:          0  HIT:          0  MISS:          0  iACCESS:          0  iHIT:          0  iMISS:          0  dACCESS:          0  dHIT:          0  dMISS:          0  itACCESS:          0  itHIT:          0  itMISS:          0  dtACCESS:          0  dtHIT:          0  dtMISS:          0
cpu0_ITLB PREFETCH     ACCESS:          0  HIT:          0  MISS:          0  iACCESS:          0  iHIT:          0  iMISS:          0  dACCESS:          0  dHIT:          0  dMISS:          0  itACCESS:          0  itHIT:          0  itMISS:          0  dtACCESS:          0  dtHIT:          0  dtMISS:          0
cpu0_ITLB WRITE        ACCESS:          0  HIT:          0  MISS:          0  iACCESS:          0  iHIT:          0  iMISS:          0  dACCESS:          0  dHIT:          0  dMISS:          0  itACCESS:          0  itHIT:          0  itMISS:          0  dtACCESS:          0  dtHIT:          0  dtMISS:          0
cpu0_ITLB TRANSLATION  ACCESS:          0  HIT:          0  MISS:          0  iACCESS:          0  iHIT:          0  iMISS:          0  dACCESS:          0  dHIT:          0  dMISS:          0  itACCESS:          0  itHIT:          0  itMISS:          0  dtACCESS:          0  dtHIT:          0  dtMISS:          0
cpu0_ITLB PREFETCH  REQUESTED:          0  ISSUED:          0  CROSSED:          0  USEFUL:     300461  USELESS:      60709
cpu0_ITLB AVERAGE iMISS LATENCY: 8.42471 cycles
cpu0_ITLB AVERAGE dMISS LATENCY: 0 cycles
cpu0_ITLB AVERAGE itMISS LATENCY: 0 cycles
cpu0_ITLB AVERAGE dtMISS LATENCY: 0 cycles
cpu0_ITLB PAGE CROSSINGS (TLB HIT):         0 
cpu0_ITLB PAGE CROSSINGS (TLB MISS):         0 
cpu0_ITLB AVERAGE MISS LATENCY: 8.42471 cycles
cpu0_DTLB TOTAL       ACCESS:   29910757  HIT:   25620440  MISS:    4290317  iACCESS:          0  iHIT:          0  iMISS:          0  dACCESS:   29910757  dHIT:   25620440  dMISS:    4290317  itACCESS:          0  itHIT:          0  itMISS:          0  dtACCESS:          0  dtHIT:          0  dtMISS:          0
cpu0_DTLB LOAD         ACCESS:   29910757  HIT:   25620440  MISS:    4290317  iACCESS:          0  iHIT:          0  iMISS:          0  dACCESS:   29910757  dHIT:   25620440  dMISS:    4290317  itACCESS:          0  itHIT:          0  itMISS:          0  dtACCESS:          0  dtHIT:          0  dtMISS:          0
cpu0_DTLB RFO          ACCESS:          0  HIT:          0  MISS:          0  iACCESS:          0  iHIT:          0  iMISS:          0  dACCESS:          0  dHIT:          0  dMISS:          0  itACCESS:          0  itHIT:          0  itMISS:          0  dtACCESS:          0  dtHIT:          0  dtMISS:          0
cpu0_DTLB PREFETCH     ACCESS:          0  HIT:          0  MISS:          0  iACCESS:          0  iHIT:          0  iMISS:          0  dACCESS:          0  dHIT:          0  dMISS:          0  itACCESS:          0  itHIT:          0  itMISS:          0  dtACCESS:          0  dtHIT:          0  dtMISS:          0
cpu0_DTLB WRITE        ACCESS:          0  HIT:          0  MISS:          0  iACCESS:          0  iHIT:          0  iMISS:          0  dACCESS:          0  dHIT:          0  dMISS:          0  itACCESS:          0  itHIT:          0  itMISS:          0  dtACCESS:          0  dtHIT:          0  dtMISS:          0
cpu0_DTLB TRANSLATION  ACCESS:          0  HIT:          0  MISS:          0  iACCESS:          0  iHIT:          0  iMISS:          0  dACCESS:          0  dHIT:          0  dMISS:          0  itACCESS:          0  itHIT:          0  itMISS:          0  dtACCESS:          0  dtHIT:          0  dtMISS:          0
cpu0_DTLB PREFETCH  REQUESTED:          0  ISSUED:          0  CROSSED:          0  USEFUL:          0  USELESS:          0
cpu0_DTLB AVERAGE iMISS LATENCY: 0 cycles
cpu0_DTLB AVERAGE dMISS LATENCY: 11.3153 cycles
cpu0_DTLB AVERAGE itMISS LATENCY: 0 cycles
cpu0_DTLB AVERAGE dtMISS LATENCY: 0 cycles
cpu0_DTLB PAGE CROSSINGS (TLB HIT):         0 
cpu0_DTLB PAGE CROSSINGS (TLB MISS):         0 
cpu0_DTLB AVERAGE MISS LATENCY: 11.3153 cycles
cpu0_STLB TOTAL       ACCESS:    2621480  HIT:    2396420  MISS:     225060  iACCESS:     361180  iHIT:     275879  iMISS:      85301  dACCESS:    2260300  dHIT:    2120541  dMISS:     139759  itACCESS:          0  itHIT:          0  itMISS:          0  dtACCESS:          0  dtHIT:          0  dtMISS:          0
cpu0_STLB LOAD         ACCESS:    2621480  HIT:    2396420  MISS:     225060  iACCESS:     361180  iHIT:     275879  iMISS:      85301  dACCESS:    2260300  dHIT:    2120541  dMISS:     139759  itACCESS:          0  itHIT:          0  itMISS:          0  dtACCESS:          0  dtHIT:          0  dtMISS:          0
cpu0_STLB RFO          ACCESS:          0  HIT:          0  MISS:          0  iACCESS:          0  iHIT:          0  iMISS:          0  dACCESS:          0  dHIT:          0  dMISS:          0  itACCESS:          0  itHIT:          0  itMISS:          0  dtACCESS:          0  dtHIT:          0  dtMISS:          0
cpu0_STLB PREFETCH     ACCESS:          0  HIT:          0  MISS:          0  iACCESS:          0  iHIT:          0  iMISS:          0  dACCESS:          0  dHIT:          0  dMISS:          0  itACCESS:          0  itHIT:          0  itMISS:          0  dtACCESS:          0  dtHIT:          0  dtMISS:          0
cpu0_STLB WRITE        ACCESS:          0  HIT:          0  MISS:          0  iACCESS:          0  iHIT:          0  iMISS:          0  dACCESS:          0  dHIT:          0  dMISS:          0  itACCESS:          0  itHIT:          0  itMISS:          0  dtACCESS:          0  dtHIT:          0  dtMISS:          0
cpu0_STLB TRANSLATION  ACCESS:          0  HIT:          0  MISS:          0  iACCESS:          0  iHIT:          0  iMISS:          0  dACCESS:          0  dHIT:          0  dMISS:          0  itACCESS:          0  itHIT:          0  itMISS:          0  dtACCESS:          0  dtHIT:          0  dtMISS:          0
cpu0_STLB PREFETCH  REQUESTED:          0  ISSUED:          0  CROSSED:          0  USEFUL:          0  USELESS:          0
cpu0_STLB AVERAGE iMISS LATENCY: 53.5127 cycles
cpu0_STLB AVERAGE dMISS LATENCY: 134.535 cycles
cpu0_STLB AVERAGE itMISS LATENCY: 0 cycles
cpu0_STLB AVERAGE dtMISS LATENCY: 0 cycles
cpu0_STLB PAGE CROSSINGS (TLB HIT):         0 
cpu0_STLB PAGE CROSSINGS (TLB MISS):         0 
cpu0_STLB AVERAGE MISS LATENCY: 188.047 cycles
cpu0_L1D TOTAL       ACCESS:   45894333  HIT:   39165416  MISS:    6728917  iACCESS:          0  iHIT:          0  iMISS:          0  dACCESS:   45605968  dHIT:   39142357  dMISS:    6463611  itACCESS:      91467  itHIT:      12130  itMISS:      79337  dtACCESS:     196898  dtHIT:      10929  dtMISS:     185969
cpu0_L1D LOAD         ACCESS:   21948478  HIT:   18134378  MISS:    3814100  iACCESS:          0  iHIT:          0  iMISS:          0  dACCESS:   21948478  dHIT:   18134378  dMISS:    3814100  itACCESS:          0  itHIT:          0  itMISS:          0  dtACCESS:          0  dtHIT:          0  dtMISS:          0
cpu0_L1D RFO          ACCESS:          0  HIT:          0  MISS:          0  iACCESS:          0  iHIT:          0  iMISS:          0  dACCESS:          0  dHIT:          0  dMISS:          0  itACCESS:          0  itHIT:          0  itMISS:          0  dtACCESS:          0  dtHIT:          0  dtMISS:          0
cpu0_L1D PREFETCH     ACCESS:   13836754  HIT:   11641636  MISS:    2195118  iACCESS:          0  iHIT:          0  iMISS:          0  dACCESS:   13836754  dHIT:   11641636  dMISS:    2195118  itACCESS:          0  itHIT:          0  itMISS:          0  dtACCESS:          0  dtHIT:          0  dtMISS:          0
cpu0_L1D WRITE        ACCESS:    9820736  HIT:    9366343  MISS:     454393  iACCESS:          0  iHIT:          0  iMISS:          0  dACCESS:    9820736  dHIT:    9366343  dMISS:     454393  itACCESS:          0  itHIT:          0  itMISS:          0  dtACCESS:          0  dtHIT:          0  dtMISS:          0
cpu0_L1D TRANSLATION  ACCESS:     288365  HIT:      23059  MISS:     265306  iACCESS:          0  iHIT:          0  iMISS:          0  dACCESS:          0  dHIT:          0  dMISS:          0  itACCESS:      91467  itHIT:      12130  itMISS:      79337  dtACCESS:     196898  dtHIT:      10929  dtMISS:     185969
cpu0_L1D PREFETCH  REQUESTED:   21948478  ISSUED:   17927147  CROSSED:          0  USEFUL:     281993  USELESS:     876427
cpu0_L1D AVERAGE iMISS LATENCY: 0 cycles
cpu0_L1D AVERAGE dMISS LATENCY: 28.8249 cycles
cpu0_L1D AVERAGE itMISS LATENCY: 1.68059 cycles
cpu0_L1D AVERAGE dtMISS LATENCY: 4.22338 cycles
cpu0_L1D PAGE CROSSINGS (TLB HIT):         0 
cpu0_L1D PAGE CROSSINGS (TLB MISS):         0 
cpu0_L1D AVERAGE MISS LATENCY: 34.7289 cycles
cpu0_L2C TOTAL       ACCESS:    8707359  HIT:    5383353  MISS:    3324006  iACCESS:    3092410  iHIT:    1862393  iMISS:    1230017  dACCESS:    5360202  dHIT:    3485458  dMISS:    1874744  itACCESS:      79334  itHIT:      14058  itMISS:      65276  dtACCESS:     175413  dtHIT:      21444  dtMISS:     153969
cpu0_L2C LOAD         ACCESS:    3327778  HIT:    2564622  MISS:     763156  iACCESS:     714489  iHIT:     461690  iMISS:     252799  dACCESS:    2613289  dHIT:    2102932  dMISS:     510357  itACCESS:          0  itHIT:          0  itMISS:          0  dtACCESS:          0  dtHIT:          0  dtMISS:          0
cpu0_L2C RFO          ACCESS:     171976  HIT:      78836  MISS:      93140  iACCESS:          0  iHIT:          0  iMISS:          0  dACCESS:     171976  dHIT:      78836  dMISS:      93140  itACCESS:          0  itHIT:          0  itMISS:          0  dtACCESS:          0  dtHIT:          0  dtMISS:          0
cpu0_L2C PREFETCH     ACCESS:    4698411  HIT:    2451574  MISS:    2246837  iACCESS:    2377921  iHIT:    1400703  iMISS:     977218  dACCESS:    2320490  dHIT:    1050871  dMISS:    1269619  itACCESS:          0  itHIT:          0  itMISS:          0  dtACCESS:          0  dtHIT:          0  dtMISS:          0
cpu0_L2C WRITE        ACCESS:     254447  HIT:     252819  MISS:       1628  iACCESS:          0  iHIT:          0  iMISS:          0  dACCESS:     254447  dHIT:     252819  dMISS:       1628  itACCESS:          0  itHIT:          0  itMISS:          0  dtACCESS:          0  dtHIT:          0  dtMISS:          0
cpu0_L2C TRANSLATION  ACCESS:     254747  HIT:      35502  MISS:     219245  iACCESS:          0  iHIT:          0  iMISS:          0  dACCESS:          0  dHIT:          0  dMISS:          0  itACCESS:      79334  itHIT:      14058  itMISS:      65276  dtACCESS:     175413  dtHIT:      21444  dtMISS:     153969
cpu0_L2C PREFETCH  REQUESTED:    1392649  ISSUED:    1392578  CROSSED:          0  USEFUL:     329920  USELESS:     266818
cpu0_L2C AVERAGE iMISS LATENCY: 36.5538 cycles
cpu0_L2C AVERAGE dMISS LATENCY: 64.6685 cycles
cpu0_L2C AVERAGE itMISS LATENCY: 3.16705 cycles
cpu0_L2C AVERAGE dtMISS LATENCY: 8.02546 cycles
cpu0_L2C PAGE CROSSINGS (TLB HIT):         0 
cpu0_L2C PAGE CROSSINGS (TLB MISS):         0 
cpu0_L2C AVERAGE MISS LATENCY: 112.415 cycles
LLC TOTAL       ACCESS:    3289547  HIT:    1341829  MISS:    1947718  iACCESS:    1158164  iHIT:     491243  iMISS:     666921  dACCESS:    1912138  dHIT:     809013  dMISS:    1103125  itACCESS:      65276  itHIT:      12391  itMISS:      52885  dtACCESS:     153969  dtHIT:      29182  dtMISS:     124787
LLC LOAD         ACCESS:     756466  HIT:     323474  MISS:     432992  iACCESS:     251628  iHIT:     111709  iMISS:     139919  dACCESS:     504838  dHIT:     211765  dMISS:     293073  itACCESS:          0  itHIT:          0  itMISS:          0  dtACCESS:          0  dtHIT:          0  dtMISS:          0
LLC RFO          ACCESS:      93131  HIT:      31232  MISS:      61899  iACCESS:          0  iHIT:          0  iMISS:          0  dACCESS:      93131  dHIT:      31232  dMISS:      61899  itACCESS:          0  itHIT:          0  itMISS:          0  dtACCESS:          0  dtHIT:          0  dtMISS:          0
LLC PREFETCH     ACCESS:    2081704  HIT:     814869  MISS:    1266835  iACCESS:     906536  iHIT:     379534  iMISS:     527002  dACCESS:    1175168  dHIT:     435335  dMISS:     739833  itACCESS:          0  itHIT:          0  itMISS:          0  dtACCESS:          0  dtHIT:          0  dtMISS:          0
LLC WRITE        ACCESS:     139001  HIT:     130681  MISS:       8320  iACCESS:          0  iHIT:          0  iMISS:          0  dACCESS:     139001  dHIT:     130681  dMISS:       8320  itACCESS:          0  itHIT:          0  itMISS:          0  dtACCESS:          0  dtHIT:          0  dtMISS:          0
LLC TRANSLATION  ACCESS:     219245  HIT:      41573  MISS:     177672  iACCESS:          0  iHIT:          0  iMISS:          0  dACCESS:          0  dHIT:          0  dMISS:          0  itACCESS:      65276  itHIT:      12391  itMISS:      52885  dtACCESS:     153969  dtHIT:      29182  dtMISS:     124787
LLC PREFETCH  REQUESTED:          0  ISSUED:          0  CROSSED:          0  USEFUL:          0  USELESS:          0
LLC AVERAGE iMISS LATENCY: 50.7316 cycles
LLC AVERAGE dMISS LATENCY: 93.5354 cycles
LLC AVERAGE itMISS LATENCY: 4.74339 cycles
LLC AVERAGE dtMISS LATENCY: 12.139 cycles
LLC PAGE CROSSINGS (TLB HIT):         0 
LLC PAGE CROSSINGS (TLB MISS):         0 
LLC AVERAGE MISS LATENCY: 161.15 cycles

PageTableWalker TOTAL       ACCESS:     129941  
PageTableWalker AVERAGE LATENCY: 5.24338 cycles
PageTableWalker TOTAL LATENCY: 681330 cycles

DRAM Statistics
Channel 0
 RQ ROW_BUFFER_HIT:     538477
  ROW_BUFFER_MISS:    1383901
 AVG DBUS CONGESTED CYCLE:    3.64289
 WQ ROW_BUFFER_HIT:      38608
  ROW_BUFFER_MISS:      27851  FULL:          0

