last_page:0x200000000000000
VMEM_RES_CAP:0x100000
PAGE_SIZE:4096
LOG2_PAGE_SIZE:12
LOG2_PAGE_TABLE_SIZE:9
page_table_levels:5
WARNING: physical memory size is smaller than virtual memory size
FDiP enabled with aggresivity 16

*** ChampSim Multicore Out-of-Order Simulator ***

Warmup Instructions: 50000000
Simulation Instructions: 100000000
Number of CPUs: 1
Small page size: 4096
Large page size: 2097152

CPU 0 Bimodal branch predictor
Basic BTB sets: 1024 ways: 8 indirect buffer size: 4096 RAS size: 64
Instruction page size distrubution: 0
Loading instruction page size distribution from /home/bsc/bsc018186/scratch/itp_asplos25_AE/dump/srv704_ap.pdst
Data page size distrubution: 0
Loading data page size distribution from /home/bsc/bsc018186/scratch/itp_asplos25_AE/dump/srv704_ap.pdst
cpu0_L2C IP-based stride prefetcher
cpu0_L1D next line prefetcher
CHiRPing...
cpu0_L1I next line prefetcher
Off-chip DRAM Size: 4 GiB Channels: 1 Width: 64-bit Data Rate: 3200 MT/s
Heartbeat CPU 0 instructions: 10000001 cycles: 2500196 heartbeat IPC: 3.99969 cumulative IPC: 3.99969 (Simulation time: 0 hr 0 min 38 sec) 
Heartbeat CPU 0 instructions: 20000003 cycles: 5000213 heartbeat IPC: 3.99998 cumulative IPC: 3.99984 (Simulation time: 0 hr 1 min 18 sec) 
Heartbeat CPU 0 instructions: 30000000 cycles: 7500218 heartbeat IPC: 4 cumulative IPC: 3.99989 (Simulation time: 0 hr 1 min 59 sec) 
Heartbeat CPU 0 instructions: 40000002 cycles: 10000257 heartbeat IPC: 3.99994 cumulative IPC: 3.9999 (Simulation time: 0 hr 2 min 41 sec) 
Heartbeat CPU 0 instructions: 50000000 cycles: 12500315 heartbeat IPC: 3.99991 cumulative IPC: 3.9999 (Simulation time: 0 hr 3 min 23 sec) 
Warmup finished CPU 0 instructions: 50000000 cycles: 12500316 cumulative IPC: 3.9999 (Simulation time: 0 hr 3 min 23 sec) 

Warmup complete CPU 0 instructions: 50000000 cycles: 12500316 (Simulation time: 0 hr 3 min 23 sec) 

Heartbeat CPU 0 instructions: 60000001 cycles: 26216409 heartbeat IPC: 0.729071 cumulative IPC: 0.729071 (Simulation time: 0 hr 4 min 29 sec) 
Heartbeat CPU 0 instructions: 70000003 cycles: 32815808 heartbeat IPC: 1.51529 cumulative IPC: 0.984471 (Simulation time: 0 hr 5 min 26 sec) 
Heartbeat CPU 0 instructions: 80000000 cycles: 46622455 heartbeat IPC: 0.724289 cumulative IPC: 0.879195 (Simulation time: 0 hr 6 min 32 sec) 
Heartbeat CPU 0 instructions: 90000003 cycles: 61448425 heartbeat IPC: 0.674493 cumulative IPC: 0.817192 (Simulation time: 0 hr 7 min 39 sec) 
Heartbeat CPU 0 instructions: 100000001 cycles: 75723313 heartbeat IPC: 0.700531 cumulative IPC: 0.790852 (Simulation time: 0 hr 8 min 44 sec) 
*** Reached end of trace: /gpfs/projects/bsc18/MN4/bsc18/romol/ChampSim/traces/qualcomm_srv/srv704_ap.champsimtrace.xz
Heartbeat CPU 0 instructions: 110000002 cycles: 90845228 heartbeat IPC: 0.661292 cumulative IPC: 0.765845 (Simulation time: 0 hr 9 min 51 sec) 
Heartbeat CPU 0 instructions: 120000004 cycles: 105688484 heartbeat IPC: 0.673707 cumulative IPC: 0.751169 (Simulation time: 0 hr 10 min 56 sec) 
Heartbeat CPU 0 instructions: 130000001 cycles: 120203608 heartbeat IPC: 0.688937 cumulative IPC: 0.742782 (Simulation time: 0 hr 12 min 2 sec) 
Heartbeat CPU 0 instructions: 140000001 cycles: 134414702 heartbeat IPC: 0.703676 cumulative IPC: 0.738223 (Simulation time: 0 hr 13 min 8 sec) 
Heartbeat CPU 0 instructions: 150000003 cycles: 149144149 heartbeat IPC: 0.678913 cumulative IPC: 0.73183 (Simulation time: 0 hr 14 min 15 sec) 
Simulation finished CPU 0 instructions: 100000003 cycles: 136643834 cumulative IPC: 0.73183 (Simulation time: 0 hr 14 min 15 sec) 

Simulation complete CPU 0 instructions: 100000003 cycles: 136643834 (Simulation time: 0 hr 14 min 15 sec) 


ChampSim completed all CPUs

Saving instructions large page distribution to /home/bsc/bsc018186/scratch/itp_asplos25_AE/dump/srv704_ap.pdst...
Saving data large page distribution to /home/bsc/bsc018186/scratch/itp_asplos25_AE/dump/srv704_ap.pdst...
=== Simulation ===
CPU 0 runs /gpfs/projects/bsc18/MN4/bsc18/romol/ChampSim/traces/qualcomm_srv/srv704_ap.champsimtrace.xz

Region of Interest Statistics

CPU 0 cumulative IPC: 0.73183 instructions: 100000003 cycles: 136643834
CPU 0 Branch Prediction Accuracy: 85.2402% MPKI: 28.2805 Average ROB Occupancy at Mispredict: 13.413
Branch type MPKI
BRANCH_DIRECT_JUMP: 0.94631
BRANCH_INDIRECT: 14.5697
BRANCH_CONDITIONAL: 9.29308
BRANCH_DIRECT_CALL: 1.7075
BRANCH_INDIRECT_CALL: 0.53942
BRANCH_RETURN: 1.22449

Instructions large pages: 0
Instructions small pages: 10107
Large page distribution for instructions: 0%

Data large pages: 0
Data small pages: 9080
Large page distribution for data: 0%

cpu0_L1I TOTAL       ACCESS:   34769410  HIT:   27248189  MISS:    7521221  iACCESS:   34769410  iHIT:   27248189  iMISS:    7521221  dACCESS:          0  dHIT:          0  dMISS:          0  itACCESS:          0  itHIT:          0  itMISS:          0  dtACCESS:          0  dtHIT:          0  dtMISS:          0
cpu0_L1I LOAD         ACCESS:    9421355  HIT:    7322922  MISS:    2098433  iACCESS:    9421355  iHIT:    7322922  iMISS:    2098433  dACCESS:          0  dHIT:          0  dMISS:          0  itACCESS:          0  itHIT:          0  itMISS:          0  dtACCESS:          0  dtHIT:          0  dtMISS:          0
cpu0_L1I RFO          ACCESS:          0  HIT:          0  MISS:          0  iACCESS:          0  iHIT:          0  iMISS:          0  dACCESS:          0  dHIT:          0  dMISS:          0  itACCESS:          0  itHIT:          0  itMISS:          0  dtACCESS:          0  dtHIT:          0  dtMISS:          0
cpu0_L1I PREFETCH     ACCESS:   25348055  HIT:   19925267  MISS:    5422788  iACCESS:   25348055  iHIT:   19925267  iMISS:    5422788  dACCESS:          0  dHIT:          0  dMISS:          0  itACCESS:          0  itHIT:          0  itMISS:          0  dtACCESS:          0  dtHIT:          0  dtMISS:          0
cpu0_L1I WRITE        ACCESS:          0  HIT:          0  MISS:          0  iACCESS:          0  iHIT:          0  iMISS:          0  dACCESS:          0  dHIT:          0  dMISS:          0  itACCESS:          0  itHIT:          0  itMISS:          0  dtACCESS:          0  dtHIT:          0  dtMISS:          0
cpu0_L1I TRANSLATION  ACCESS:          0  HIT:          0  MISS:          0  iACCESS:          0  iHIT:          0  iMISS:          0  dACCESS:          0  dHIT:          0  dMISS:          0  itACCESS:          0  itHIT:          0  itMISS:          0  dtACCESS:          0  dtHIT:          0  dtMISS:          0
cpu0_L1I PREFETCH  REQUESTED:   27416221  ISSUED:   27414352  CROSSED:          0  USEFUL:    1734642  USELESS:     560805
cpu0_L1I AVERAGE iMISS LATENCY: 13.9945 cycles
cpu0_L1I AVERAGE dMISS LATENCY: 0 cycles
cpu0_L1I AVERAGE itMISS LATENCY: 0 cycles
cpu0_L1I AVERAGE dtMISS LATENCY: 0 cycles
cpu0_L1I PAGE CROSSINGS (TLB HIT):         0 
cpu0_L1I PAGE CROSSINGS (TLB MISS):         0 
cpu0_L1I AVERAGE MISS LATENCY: 13.9945 cycles
cpu0_ITLB TOTAL       ACCESS:   28864529  HIT:   27141133  MISS:    1723396  iACCESS:   28864529  iHIT:   27141133  iMISS:    1723396  dACCESS:          0  dHIT:          0  dMISS:          0  itACCESS:          0  itHIT:          0  itMISS:          0  dtACCESS:          0  dtHIT:          0  dtMISS:          0
cpu0_ITLB LOAD         ACCESS:   28864529  HIT:   27141133  MISS:    1723396  iACCESS:   28864529  iHIT:   27141133  iMISS:    1723396  dACCESS:          0  dHIT:          0  dMISS:          0  itACCESS:          0  itHIT:          0  itMISS:          0  dtACCESS:          0  dtHIT:          0  dtMISS:          0
cpu0_ITLB RFO          ACCESS:          0  HIT:          0  MISS:          0  iACCESS:          0  iHIT:          0  iMISS:          0  dACCESS:          0  dHIT:          0  dMISS:          0  itACCESS:          0  itHIT:          0  itMISS:          0  dtACCESS:          0  dtHIT:          0  dtMISS:          0
cpu0_ITLB PREFETCH     ACCESS:          0  HIT:          0  MISS:          0  iACCESS:          0  iHIT:          0  iMISS:          0  dACCESS:          0  dHIT:          0  dMISS:          0  itACCESS:          0  itHIT:          0  itMISS:          0  dtACCESS:          0  dtHIT:          0  dtMISS:          0
cpu0_ITLB WRITE        ACCESS:          0  HIT:          0  MISS:          0  iACCESS:          0  iHIT:          0  iMISS:          0  dACCESS:          0  dHIT:          0  dMISS:          0  itACCESS:          0  itHIT:          0  itMISS:          0  dtACCESS:          0  dtHIT:          0  dtMISS:          0
cpu0_ITLB TRANSLATION  ACCESS:          0  HIT:          0  MISS:          0  iACCESS:          0  iHIT:          0  iMISS:          0  dACCESS:          0  dHIT:          0  dMISS:          0  itACCESS:          0  itHIT:          0  itMISS:          0  dtACCESS:          0  dtHIT:          0  dtMISS:          0
cpu0_ITLB PREFETCH  REQUESTED:          0  ISSUED:          0  CROSSED:          0  USEFUL:     282389  USELESS:      57040
cpu0_ITLB AVERAGE iMISS LATENCY: 3.20783 cycles
cpu0_ITLB AVERAGE dMISS LATENCY: 0 cycles
cpu0_ITLB AVERAGE itMISS LATENCY: 0 cycles
cpu0_ITLB AVERAGE dtMISS LATENCY: 0 cycles
cpu0_ITLB PAGE CROSSINGS (TLB HIT):         0 
cpu0_ITLB PAGE CROSSINGS (TLB MISS):         0 
cpu0_ITLB AVERAGE MISS LATENCY: 3.20783 cycles
cpu0_DTLB TOTAL       ACCESS:   29485209  HIT:   25180823  MISS:    4304386  iACCESS:          0  iHIT:          0  iMISS:          0  dACCESS:   29485209  dHIT:   25180823  dMISS:    4304386  itACCESS:          0  itHIT:          0  itMISS:          0  dtACCESS:          0  dtHIT:          0  dtMISS:          0
cpu0_DTLB LOAD         ACCESS:   29485209  HIT:   25180823  MISS:    4304386  iACCESS:          0  iHIT:          0  iMISS:          0  dACCESS:   29485209  dHIT:   25180823  dMISS:    4304386  itACCESS:          0  itHIT:          0  itMISS:          0  dtACCESS:          0  dtHIT:          0  dtMISS:          0
cpu0_DTLB RFO          ACCESS:          0  HIT:          0  MISS:          0  iACCESS:          0  iHIT:          0  iMISS:          0  dACCESS:          0  dHIT:          0  dMISS:          0  itACCESS:          0  itHIT:          0  itMISS:          0  dtACCESS:          0  dtHIT:          0  dtMISS:          0
cpu0_DTLB PREFETCH     ACCESS:          0  HIT:          0  MISS:          0  iACCESS:          0  iHIT:          0  iMISS:          0  dACCESS:          0  dHIT:          0  dMISS:          0  itACCESS:          0  itHIT:          0  itMISS:          0  dtACCESS:          0  dtHIT:          0  dtMISS:          0
cpu0_DTLB WRITE        ACCESS:          0  HIT:          0  MISS:          0  iACCESS:          0  iHIT:          0  iMISS:          0  dACCESS:          0  dHIT:          0  dMISS:          0  itACCESS:          0  itHIT:          0  itMISS:          0  dtACCESS:          0  dtHIT:          0  dtMISS:          0
cpu0_DTLB TRANSLATION  ACCESS:          0  HIT:          0  MISS:          0  iACCESS:          0  iHIT:          0  iMISS:          0  dACCESS:          0  dHIT:          0  dMISS:          0  itACCESS:          0  itHIT:          0  itMISS:          0  dtACCESS:          0  dtHIT:          0  dtMISS:          0
cpu0_DTLB PREFETCH  REQUESTED:          0  ISSUED:          0  CROSSED:          0  USEFUL:          0  USELESS:          0
cpu0_DTLB AVERAGE iMISS LATENCY: 0 cycles
cpu0_DTLB AVERAGE dMISS LATENCY: 6.64598 cycles
cpu0_DTLB AVERAGE itMISS LATENCY: 0 cycles
cpu0_DTLB AVERAGE dtMISS LATENCY: 0 cycles
cpu0_DTLB PAGE CROSSINGS (TLB HIT):         0 
cpu0_DTLB PAGE CROSSINGS (TLB MISS):         0 
cpu0_DTLB AVERAGE MISS LATENCY: 6.64598 cycles
cpu0_STLB TOTAL       ACCESS:    2571843  HIT:    2415583  MISS:     156260  iACCESS:     339445  iHIT:     285281  iMISS:      54164  dACCESS:    2232398  dHIT:    2130302  dMISS:     102096  itACCESS:          0  itHIT:          0  itMISS:          0  dtACCESS:          0  dtHIT:          0  dtMISS:          0
cpu0_STLB LOAD         ACCESS:    2571843  HIT:    2415583  MISS:     156260  iACCESS:     339445  iHIT:     285281  iMISS:      54164  dACCESS:    2232398  dHIT:    2130302  dMISS:     102096  itACCESS:          0  itHIT:          0  itMISS:          0  dtACCESS:          0  dtHIT:          0  dtMISS:          0
cpu0_STLB RFO          ACCESS:          0  HIT:          0  MISS:          0  iACCESS:          0  iHIT:          0  iMISS:          0  dACCESS:          0  dHIT:          0  dMISS:          0  itACCESS:          0  itHIT:          0  itMISS:          0  dtACCESS:          0  dtHIT:          0  dtMISS:          0
cpu0_STLB PREFETCH     ACCESS:          0  HIT:          0  MISS:          0  iACCESS:          0  iHIT:          0  iMISS:          0  dACCESS:          0  dHIT:          0  dMISS:          0  itACCESS:          0  itHIT:          0  itMISS:          0  dtACCESS:          0  dtHIT:          0  dtMISS:          0
cpu0_STLB WRITE        ACCESS:          0  HIT:          0  MISS:          0  iACCESS:          0  iHIT:          0  iMISS:          0  dACCESS:          0  dHIT:          0  dMISS:          0  itACCESS:          0  itHIT:          0  itMISS:          0  dtACCESS:          0  dtHIT:          0  dtMISS:          0
cpu0_STLB TRANSLATION  ACCESS:          0  HIT:          0  MISS:          0  iACCESS:          0  iHIT:          0  iMISS:          0  dACCESS:          0  dHIT:          0  dMISS:          0  itACCESS:          0  itHIT:          0  itMISS:          0  dtACCESS:          0  dtHIT:          0  dtMISS:          0
cpu0_STLB PREFETCH  REQUESTED:          0  ISSUED:          0  CROSSED:          0  USEFUL:          0  USELESS:          0
cpu0_STLB AVERAGE iMISS LATENCY: 18.2121 cycles
cpu0_STLB AVERAGE dMISS LATENCY: 67.9676 cycles
cpu0_STLB AVERAGE itMISS LATENCY: 0 cycles
cpu0_STLB AVERAGE dtMISS LATENCY: 0 cycles
cpu0_STLB PAGE CROSSINGS (TLB HIT):         0 
cpu0_STLB PAGE CROSSINGS (TLB MISS):         0 
cpu0_STLB AVERAGE MISS LATENCY: 86.1796 cycles
cpu0_L1D TOTAL       ACCESS:   44533900  HIT:   38620434  MISS:    5913466  iACCESS:          0  iHIT:          0  iMISS:          0  dACCESS:   44317406  dHIT:   38601358  dMISS:    5716048  itACCESS:      58303  itHIT:       8751  itMISS:      49552  dtACCESS:     158191  dtHIT:      10325  dtMISS:     147866
cpu0_L1D LOAD         ACCESS:   21532182  HIT:   18147921  MISS:    3384261  iACCESS:          0  iHIT:          0  iMISS:          0  dACCESS:   21532182  dHIT:   18147921  dMISS:    3384261  itACCESS:          0  itHIT:          0  itMISS:          0  dtACCESS:          0  dtHIT:          0  dtMISS:          0
cpu0_L1D RFO          ACCESS:          0  HIT:          0  MISS:          0  iACCESS:          0  iHIT:          0  iMISS:          0  dACCESS:          0  dHIT:          0  dMISS:          0  itACCESS:          0  itHIT:          0  itMISS:          0  dtACCESS:          0  dtHIT:          0  dtMISS:          0
cpu0_L1D PREFETCH     ACCESS:   12969492  HIT:   11037471  MISS:    1932021  iACCESS:          0  iHIT:          0  iMISS:          0  dACCESS:   12969492  dHIT:   11037471  dMISS:    1932021  itACCESS:          0  itHIT:          0  itMISS:          0  dtACCESS:          0  dtHIT:          0  dtMISS:          0
cpu0_L1D WRITE        ACCESS:    9815732  HIT:    9415966  MISS:     399766  iACCESS:          0  iHIT:          0  iMISS:          0  dACCESS:    9815732  dHIT:    9415966  dMISS:     399766  itACCESS:          0  itHIT:          0  itMISS:          0  dtACCESS:          0  dtHIT:          0  dtMISS:          0
cpu0_L1D TRANSLATION  ACCESS:     216494  HIT:      19076  MISS:     197418  iACCESS:          0  iHIT:          0  iMISS:          0  dACCESS:          0  dHIT:          0  dMISS:          0  itACCESS:      58303  itHIT:       8751  itMISS:      49552  dtACCESS:     158191  dtHIT:      10325  dtMISS:     147866
cpu0_L1D PREFETCH  REQUESTED:   21532182  ISSUED:   17207952  CROSSED:          0  USEFUL:     275749  USELESS:     707827
cpu0_L1D AVERAGE iMISS LATENCY: 0 cycles
cpu0_L1D AVERAGE dMISS LATENCY: 23.222 cycles
cpu0_L1D AVERAGE itMISS LATENCY: 0.400117 cycles
cpu0_L1D AVERAGE dtMISS LATENCY: 1.43279 cycles
cpu0_L1D PAGE CROSSINGS (TLB HIT):         0 
cpu0_L1D PAGE CROSSINGS (TLB MISS):         0 
cpu0_L1D AVERAGE MISS LATENCY: 25.0549 cycles
cpu0_L2C TOTAL       ACCESS:    7794904  HIT:    2296287  MISS:    5498617  iACCESS:    2951065  iHIT:     741627  iMISS:    2209438  dACCESS:    4660095  dHIT:    1448500  dMISS:    3211595  itACCESS:      49552  itHIT:      34549  itMISS:      15003  dtACCESS:     134192  dtHIT:      71611  dtMISS:      62581
cpu0_L2C LOAD         ACCESS:    2933510  HIT:    1002633  MISS:    1930877  iACCESS:     689608  iHIT:     116160  iMISS:     573448  dACCESS:    2243902  dHIT:     886473  dMISS:    1357429  itACCESS:          0  itHIT:          0  itMISS:          0  dtACCESS:          0  dtHIT:          0  dtMISS:          0
cpu0_L2C RFO          ACCESS:     163217  HIT:      57351  MISS:     105866  iACCESS:          0  iHIT:          0  iMISS:          0  dACCESS:     163217  dHIT:      57351  dMISS:     105866  itACCESS:          0  itHIT:          0  itMISS:          0  dtACCESS:          0  dtHIT:          0  dtMISS:          0
cpu0_L2C PREFETCH     ACCESS:    4261233  HIT:    1012124  MISS:    3249109  iACCESS:    2261457  iHIT:     625467  iMISS:    1635990  dACCESS:    1999776  dHIT:     386657  dMISS:    1613119  itACCESS:          0  itHIT:          0  itMISS:          0  dtACCESS:          0  dtHIT:          0  dtMISS:          0
cpu0_L2C WRITE        ACCESS:     253200  HIT:     118019  MISS:     135181  iACCESS:          0  iHIT:          0  iMISS:          0  dACCESS:     253200  dHIT:     118019  dMISS:     135181  itACCESS:          0  itHIT:          0  itMISS:          0  dtACCESS:          0  dtHIT:          0  dtMISS:          0
cpu0_L2C TRANSLATION  ACCESS:     183744  HIT:     106160  MISS:      77584  iACCESS:          0  iHIT:          0  iMISS:          0  dACCESS:          0  dHIT:          0  dMISS:          0  itACCESS:      49552  itHIT:      34549  itMISS:      15003  dtACCESS:     134192  dtHIT:      71611  dtMISS:      62581
cpu0_L2C PREFETCH  REQUESTED:    1248173  ISSUED:    1248173  CROSSED:          0  USEFUL:     367203  USELESS:     344062
cpu0_L2C AVERAGE iMISS LATENCY: 14.1485 cycles
cpu0_L2C AVERAGE dMISS LATENCY: 25.8063 cycles
cpu0_L2C AVERAGE itMISS LATENCY: 0.346247 cycles
cpu0_L2C AVERAGE dtMISS LATENCY: 1.3084 cycles
cpu0_L2C PAGE CROSSINGS (TLB HIT):         0 
cpu0_L2C PAGE CROSSINGS (TLB MISS):         0 
cpu0_L2C AVERAGE MISS LATENCY: 41.6094 cycles
LLC TOTAL       ACCESS:    5380104  HIT:    4558772  MISS:     821332  iACCESS:    2156633  iHIT:    1903392  iMISS:     253241  dACCESS:    3145887  dHIT:    2620195  dMISS:     525692  itACCESS:      15003  itHIT:       5685  itMISS:       9318  dtACCESS:      62581  dtHIT:      29500  dtMISS:      33081
LLC LOAD         ACCESS:    1928264  HIT:    1748336  MISS:     179928  iACCESS:     571943  iHIT:     518557  iMISS:      53386  dACCESS:    1356321  dHIT:    1229779  dMISS:     126542  itACCESS:          0  itHIT:          0  itMISS:          0  dtACCESS:          0  dtHIT:          0  dtMISS:          0
LLC RFO          ACCESS:     105864  HIT:      74669  MISS:      31195  iACCESS:          0  iHIT:          0  iMISS:          0  dACCESS:     105864  dHIT:      74669  dMISS:      31195  itACCESS:          0  itHIT:          0  itMISS:          0  dtACCESS:          0  dtHIT:          0  dtMISS:          0
LLC PREFETCH     ACCESS:    3142989  HIT:    2583538  MISS:     559451  iACCESS:    1584690  iHIT:    1384835  iMISS:     199855  dACCESS:    1558299  dHIT:    1198703  dMISS:     359596  itACCESS:          0  itHIT:          0  itMISS:          0  dtACCESS:          0  dtHIT:          0  dtMISS:          0
LLC WRITE        ACCESS:     125403  HIT:     117044  MISS:       8359  iACCESS:          0  iHIT:          0  iMISS:          0  dACCESS:     125403  dHIT:     117044  dMISS:       8359  itACCESS:          0  itHIT:          0  itMISS:          0  dtACCESS:          0  dtHIT:          0  dtMISS:          0
LLC TRANSLATION  ACCESS:      77584  HIT:      35185  MISS:      42399  iACCESS:          0  iHIT:          0  iMISS:          0  dACCESS:          0  dHIT:          0  dMISS:          0  itACCESS:      15003  itHIT:       5685  itMISS:       9318  dtACCESS:      62581  dtHIT:      29500  dtMISS:      33081
LLC PREFETCH  REQUESTED:          0  ISSUED:          0  CROSSED:          0  USEFUL:          0  USELESS:          0
LLC AVERAGE iMISS LATENCY: 44.0062 cycles
LLC AVERAGE dMISS LATENCY: 101.687 cycles
LLC AVERAGE itMISS LATENCY: 1.9603 cycles
LLC AVERAGE dtMISS LATENCY: 7.27323 cycles
LLC PAGE CROSSINGS (TLB HIT):         0 
LLC PAGE CROSSINGS (TLB MISS):         0 
LLC AVERAGE MISS LATENCY: 154.927 cycles

PageTableWalker TOTAL       ACCESS:      90232  
PageTableWalker AVERAGE LATENCY: 4.55057 cycles
PageTableWalker TOTAL LATENCY: 410607 cycles

DRAM Statistics
Channel 0
 RQ ROW_BUFFER_HIT:     247487
  ROW_BUFFER_MISS:     564816
 AVG DBUS CONGESTED CYCLE:    3.63335
 WQ ROW_BUFFER_HIT:      15059
  ROW_BUFFER_MISS:      18700  FULL:          0

