last_page:0x200000000000000
VMEM_RES_CAP:0x100000
PAGE_SIZE:4096
LOG2_PAGE_SIZE:12
LOG2_PAGE_TABLE_SIZE:9
page_table_levels:5
WARNING: physical memory size is smaller than virtual memory size
FDiP enabled with aggresivity 16

*** ChampSim Multicore Out-of-Order Simulator ***

Warmup Instructions: 50000000
Simulation Instructions: 100000000
Number of CPUs: 1
Small page size: 4096
Large page size: 2097152

CPU 0 Bimodal branch predictor
Basic BTB sets: 1024 ways: 8 indirect buffer size: 4096 RAS size: 64
Instruction page size distrubution: 0
Loading instruction page size distribution from /home/bsc/bsc018186/scratch/itp_asplos25_AE/dump/srv702_ap.pdst
Data page size distrubution: 0
Loading data page size distribution from /home/bsc/bsc018186/scratch/itp_asplos25_AE/dump/srv702_ap.pdst
cpu0_L2C IP-based stride prefetcher
cpu0_L1D next line prefetcher
cpu0_STLB using iTP with max lru@8
cpu0_STLB using iTP with instr@0 and data@2
Init sat counter with 3 bits (max:50).
cpu0_L1I next line prefetcher
Off-chip DRAM Size: 4 GiB Channels: 1 Width: 64-bit Data Rate: 3200 MT/s
Heartbeat CPU 0 instructions: 10000001 cycles: 2500213 heartbeat IPC: 3.99966 cumulative IPC: 3.99966 (Simulation time: 0 hr 0 min 38 sec) 
Heartbeat CPU 0 instructions: 20000000 cycles: 5000273 heartbeat IPC: 3.99991 cumulative IPC: 3.99979 (Simulation time: 0 hr 1 min 18 sec) 
Heartbeat CPU 0 instructions: 30000000 cycles: 7500278 heartbeat IPC: 4 cumulative IPC: 3.99986 (Simulation time: 0 hr 1 min 58 sec) 
Heartbeat CPU 0 instructions: 40000001 cycles: 10000375 heartbeat IPC: 3.99985 cumulative IPC: 3.99986 (Simulation time: 0 hr 2 min 38 sec) 
Heartbeat CPU 0 instructions: 50000003 cycles: 12500378 heartbeat IPC: 4 cumulative IPC: 3.99988 (Simulation time: 0 hr 3 min 19 sec) 
Warmup finished CPU 0 instructions: 50000003 cycles: 12500379 cumulative IPC: 3.99988 (Simulation time: 0 hr 3 min 19 sec) 

Warmup complete CPU 0 instructions: 50000003 cycles: 12500379 (Simulation time: 0 hr 3 min 19 sec) 

Heartbeat CPU 0 instructions: 60000002 cycles: 33370338 heartbeat IPC: 0.479158 cumulative IPC: 0.479158 (Simulation time: 0 hr 4 min 30 sec) 
Heartbeat CPU 0 instructions: 70000004 cycles: 53665494 heartbeat IPC: 0.492729 cumulative IPC: 0.485849 (Simulation time: 0 hr 5 min 41 sec) 
Heartbeat CPU 0 instructions: 80000000 cycles: 73874887 heartbeat IPC: 0.49482 cumulative IPC: 0.488803 (Simulation time: 0 hr 6 min 52 sec) 
Heartbeat CPU 0 instructions: 90000000 cycles: 95725632 heartbeat IPC: 0.457651 cumulative IPC: 0.480624 (Simulation time: 0 hr 8 min 5 sec) 
Heartbeat CPU 0 instructions: 100000000 cycles: 116045814 heartbeat IPC: 0.492122 cumulative IPC: 0.48288 (Simulation time: 0 hr 9 min 16 sec) 
*** Reached end of trace: /gpfs/projects/bsc18/MN4/bsc18/romol/ChampSim/traces/qualcomm_srv/srv702_ap.champsimtrace.xz
Heartbeat CPU 0 instructions: 110000002 cycles: 137038376 heartbeat IPC: 0.47636 cumulative IPC: 0.481781 (Simulation time: 0 hr 10 min 28 sec) 
Heartbeat CPU 0 instructions: 120000002 cycles: 157402718 heartbeat IPC: 0.491055 cumulative IPC: 0.483084 (Simulation time: 0 hr 11 min 39 sec) 
Heartbeat CPU 0 instructions: 130000003 cycles: 178358282 heartbeat IPC: 0.477201 cumulative IPC: 0.482341 (Simulation time: 0 hr 12 min 51 sec) 
Heartbeat CPU 0 instructions: 140000001 cycles: 200641301 heartbeat IPC: 0.448773 cumulative IPC: 0.478365 (Simulation time: 0 hr 14 min 4 sec) 
Heartbeat CPU 0 instructions: 150000000 cycles: 220908577 heartbeat IPC: 0.493407 cumulative IPC: 0.479828 (Simulation time: 0 hr 15 min 16 sec) 
Simulation finished CPU 0 instructions: 100000000 cycles: 208408203 cumulative IPC: 0.479828 (Simulation time: 0 hr 15 min 16 sec) 

Simulation complete CPU 0 instructions: 100000000 cycles: 208408203 (Simulation time: 0 hr 15 min 16 sec) 


ChampSim completed all CPUs

Saving instructions large page distribution to /home/bsc/bsc018186/scratch/itp_asplos25_AE/dump/srv702_ap.pdst...
Saving data large page distribution to /home/bsc/bsc018186/scratch/itp_asplos25_AE/dump/srv702_ap.pdst...
=== Simulation ===
CPU 0 runs /gpfs/projects/bsc18/MN4/bsc18/romol/ChampSim/traces/qualcomm_srv/srv702_ap.champsimtrace.xz

Region of Interest Statistics

CPU 0 cumulative IPC: 0.479828 instructions: 100000000 cycles: 208408203
CPU 0 Branch Prediction Accuracy: 79.7342% MPKI: 36.6083 Average ROB Occupancy at Mispredict: 10.6762
Branch type MPKI
BRANCH_DIRECT_JUMP: 1.3734
BRANCH_INDIRECT: 18.4177
BRANCH_CONDITIONAL: 11.8353
BRANCH_DIRECT_CALL: 2.56442
BRANCH_INDIRECT_CALL: 0.659331
BRANCH_RETURN: 1.75824

Instructions large pages: 0
Instructions small pages: 6206
Large page distribution for instructions: 0%

Data large pages: 0
Data small pages: 5147
Large page distribution for data: 0%

cpu0_L1I TOTAL       ACCESS:   36199164  HIT:   28098834  MISS:    8100330  iACCESS:   36199164  iHIT:   28098834  iMISS:    8100330  dACCESS:          0  dHIT:          0  dMISS:          0  itACCESS:          0  itHIT:          0  itMISS:          0  dtACCESS:          0  dtHIT:          0  dtMISS:          0
cpu0_L1I LOAD         ACCESS:   10582175  HIT:    8358387  MISS:    2223788  iACCESS:   10582175  iHIT:    8358387  iMISS:    2223788  dACCESS:          0  dHIT:          0  dMISS:          0  itACCESS:          0  itHIT:          0  itMISS:          0  dtACCESS:          0  dtHIT:          0  dtMISS:          0
cpu0_L1I RFO          ACCESS:          0  HIT:          0  MISS:          0  iACCESS:          0  iHIT:          0  iMISS:          0  dACCESS:          0  dHIT:          0  dMISS:          0  itACCESS:          0  itHIT:          0  itMISS:          0  dtACCESS:          0  dtHIT:          0  dtMISS:          0
cpu0_L1I PREFETCH     ACCESS:   25616989  HIT:   19740447  MISS:    5876542  iACCESS:   25616989  iHIT:   19740447  iMISS:    5876542  dACCESS:          0  dHIT:          0  dMISS:          0  itACCESS:          0  itHIT:          0  itMISS:          0  dtACCESS:          0  dtHIT:          0  dtMISS:          0
cpu0_L1I WRITE        ACCESS:          0  HIT:          0  MISS:          0  iACCESS:          0  iHIT:          0  iMISS:          0  dACCESS:          0  dHIT:          0  dMISS:          0  itACCESS:          0  itHIT:          0  itMISS:          0  dtACCESS:          0  dtHIT:          0  dtMISS:          0
cpu0_L1I TRANSLATION  ACCESS:          0  HIT:          0  MISS:          0  iACCESS:          0  iHIT:          0  iMISS:          0  dACCESS:          0  dHIT:          0  dMISS:          0  itACCESS:          0  itHIT:          0  itMISS:          0  dtACCESS:          0  dtHIT:          0  dtMISS:          0
cpu0_L1I PREFETCH  REQUESTED:   28161785  ISSUED:   28161785  CROSSED:          0  USEFUL:    2048555  USELESS:     669155
cpu0_L1I AVERAGE iMISS LATENCY: 19.3771 cycles
cpu0_L1I AVERAGE dMISS LATENCY: 0 cycles
cpu0_L1I AVERAGE itMISS LATENCY: 0 cycles
cpu0_L1I AVERAGE dtMISS LATENCY: 0 cycles
cpu0_L1I PAGE CROSSINGS (TLB HIT):         0 
cpu0_L1I PAGE CROSSINGS (TLB MISS):         0 
cpu0_L1I AVERAGE MISS LATENCY: 19.3771 cycles
cpu0_ITLB TOTAL       ACCESS:   30437515  HIT:   28465289  MISS:    1972226  iACCESS:   30437515  iHIT:   28465289  iMISS:    1972226  dACCESS:          0  dHIT:          0  dMISS:          0  itACCESS:          0  itHIT:          0  itMISS:          0  dtACCESS:          0  dtHIT:          0  dtMISS:          0
cpu0_ITLB LOAD         ACCESS:   30437515  HIT:   28465289  MISS:    1972226  iACCESS:   30437515  iHIT:   28465289  iMISS:    1972226  dACCESS:          0  dHIT:          0  dMISS:          0  itACCESS:          0  itHIT:          0  itMISS:          0  dtACCESS:          0  dtHIT:          0  dtMISS:          0
cpu0_ITLB RFO          ACCESS:          0  HIT:          0  MISS:          0  iACCESS:          0  iHIT:          0  iMISS:          0  dACCESS:          0  dHIT:          0  dMISS:          0  itACCESS:          0  itHIT:          0  itMISS:          0  dtACCESS:          0  dtHIT:          0  dtMISS:          0
cpu0_ITLB PREFETCH     ACCESS:          0  HIT:          0  MISS:          0  iACCESS:          0  iHIT:          0  iMISS:          0  dACCESS:          0  dHIT:          0  dMISS:          0  itACCESS:          0  itHIT:          0  itMISS:          0  dtACCESS:          0  dtHIT:          0  dtMISS:          0
cpu0_ITLB WRITE        ACCESS:          0  HIT:          0  MISS:          0  iACCESS:          0  iHIT:          0  iMISS:          0  dACCESS:          0  dHIT:          0  dMISS:          0  itACCESS:          0  itHIT:          0  itMISS:          0  dtACCESS:          0  dtHIT:          0  dtMISS:          0
cpu0_ITLB TRANSLATION  ACCESS:          0  HIT:          0  MISS:          0  iACCESS:          0  iHIT:          0  iMISS:          0  dACCESS:          0  dHIT:          0  dMISS:          0  itACCESS:          0  itHIT:          0  itMISS:          0  dtACCESS:          0  dtHIT:          0  dtMISS:          0
cpu0_ITLB PREFETCH  REQUESTED:          0  ISSUED:          0  CROSSED:          0  USEFUL:     334144  USELESS:      66866
cpu0_ITLB AVERAGE iMISS LATENCY: 4.12165 cycles
cpu0_ITLB AVERAGE dMISS LATENCY: 0 cycles
cpu0_ITLB AVERAGE itMISS LATENCY: 0 cycles
cpu0_ITLB AVERAGE dtMISS LATENCY: 0 cycles
cpu0_ITLB PAGE CROSSINGS (TLB HIT):         0 
cpu0_ITLB PAGE CROSSINGS (TLB MISS):         0 
cpu0_ITLB AVERAGE MISS LATENCY: 4.12165 cycles
cpu0_DTLB TOTAL       ACCESS:   27978098  HIT:   25999370  MISS:    1978728  iACCESS:          0  iHIT:          0  iMISS:          0  dACCESS:   27978098  dHIT:   25999370  dMISS:    1978728  itACCESS:          0  itHIT:          0  itMISS:          0  dtACCESS:          0  dtHIT:          0  dtMISS:          0
cpu0_DTLB LOAD         ACCESS:   27978098  HIT:   25999370  MISS:    1978728  iACCESS:          0  iHIT:          0  iMISS:          0  dACCESS:   27978098  dHIT:   25999370  dMISS:    1978728  itACCESS:          0  itHIT:          0  itMISS:          0  dtACCESS:          0  dtHIT:          0  dtMISS:          0
cpu0_DTLB RFO          ACCESS:          0  HIT:          0  MISS:          0  iACCESS:          0  iHIT:          0  iMISS:          0  dACCESS:          0  dHIT:          0  dMISS:          0  itACCESS:          0  itHIT:          0  itMISS:          0  dtACCESS:          0  dtHIT:          0  dtMISS:          0
cpu0_DTLB PREFETCH     ACCESS:          0  HIT:          0  MISS:          0  iACCESS:          0  iHIT:          0  iMISS:          0  dACCESS:          0  dHIT:          0  dMISS:          0  itACCESS:          0  itHIT:          0  itMISS:          0  dtACCESS:          0  dtHIT:          0  dtMISS:          0
cpu0_DTLB WRITE        ACCESS:          0  HIT:          0  MISS:          0  iACCESS:          0  iHIT:          0  iMISS:          0  dACCESS:          0  dHIT:          0  dMISS:          0  itACCESS:          0  itHIT:          0  itMISS:          0  dtACCESS:          0  dtHIT:          0  dtMISS:          0
cpu0_DTLB TRANSLATION  ACCESS:          0  HIT:          0  MISS:          0  iACCESS:          0  iHIT:          0  iMISS:          0  dACCESS:          0  dHIT:          0  dMISS:          0  itACCESS:          0  itHIT:          0  itMISS:          0  dtACCESS:          0  dtHIT:          0  dtMISS:          0
cpu0_DTLB PREFETCH  REQUESTED:          0  ISSUED:          0  CROSSED:          0  USEFUL:          0  USELESS:          0
cpu0_DTLB AVERAGE iMISS LATENCY: 0 cycles
cpu0_DTLB AVERAGE dMISS LATENCY: 23.9739 cycles
cpu0_DTLB AVERAGE itMISS LATENCY: 0 cycles
cpu0_DTLB AVERAGE dtMISS LATENCY: 0 cycles
cpu0_DTLB PAGE CROSSINGS (TLB HIT):         0 
cpu0_DTLB PAGE CROSSINGS (TLB MISS):         0 
cpu0_DTLB AVERAGE MISS LATENCY: 23.9739 cycles
cpu0_STLB TOTAL       ACCESS:    1625400  HIT:    1409341  MISS:     216059  iACCESS:     401011  iHIT:     372070  iMISS:      28941  dACCESS:    1224389  dHIT:    1037271  dMISS:     187118  itACCESS:          0  itHIT:          0  itMISS:          0  dtACCESS:          0  dtHIT:          0  dtMISS:          0
cpu0_STLB LOAD         ACCESS:    1625400  HIT:    1409341  MISS:     216059  iACCESS:     401011  iHIT:     372070  iMISS:      28941  dACCESS:    1224389  dHIT:    1037271  dMISS:     187118  itACCESS:          0  itHIT:          0  itMISS:          0  dtACCESS:          0  dtHIT:          0  dtMISS:          0
cpu0_STLB RFO          ACCESS:          0  HIT:          0  MISS:          0  iACCESS:          0  iHIT:          0  iMISS:          0  dACCESS:          0  dHIT:          0  dMISS:          0  itACCESS:          0  itHIT:          0  itMISS:          0  dtACCESS:          0  dtHIT:          0  dtMISS:          0
cpu0_STLB PREFETCH     ACCESS:          0  HIT:          0  MISS:          0  iACCESS:          0  iHIT:          0  iMISS:          0  dACCESS:          0  dHIT:          0  dMISS:          0  itACCESS:          0  itHIT:          0  itMISS:          0  dtACCESS:          0  dtHIT:          0  dtMISS:          0
cpu0_STLB WRITE        ACCESS:          0  HIT:          0  MISS:          0  iACCESS:          0  iHIT:          0  iMISS:          0  dACCESS:          0  dHIT:          0  dMISS:          0  itACCESS:          0  itHIT:          0  itMISS:          0  dtACCESS:          0  dtHIT:          0  dtMISS:          0
cpu0_STLB TRANSLATION  ACCESS:          0  HIT:          0  MISS:          0  iACCESS:          0  iHIT:          0  iMISS:          0  dACCESS:          0  dHIT:          0  dMISS:          0  itACCESS:          0  itHIT:          0  itMISS:          0  dtACCESS:          0  dtHIT:          0  dtMISS:          0
cpu0_STLB PREFETCH  REQUESTED:          0  ISSUED:          0  CROSSED:          0  USEFUL:          0  USELESS:          0
cpu0_STLB AVERAGE iMISS LATENCY: 23.1305 cycles
cpu0_STLB AVERAGE dMISS LATENCY: 174.077 cycles
cpu0_STLB AVERAGE itMISS LATENCY: 0 cycles
cpu0_STLB AVERAGE dtMISS LATENCY: 0 cycles
cpu0_STLB PAGE CROSSINGS (TLB HIT):         0 
cpu0_STLB PAGE CROSSINGS (TLB MISS):         0 
cpu0_STLB AVERAGE MISS LATENCY: 197.208 cycles
cpu0_L1D TOTAL       ACCESS:   42958826  HIT:   38568370  MISS:    4390456  iACCESS:          0  iHIT:          0  iMISS:          0  dACCESS:   42664405  dHIT:   38550560  dMISS:    4113845  itACCESS:      32693  itHIT:       2863  itMISS:      29830  dtACCESS:     261728  dtHIT:      14947  dtMISS:     246781
cpu0_L1D LOAD         ACCESS:   19515628  HIT:   17626157  MISS:    1889471  iACCESS:          0  iHIT:          0  iMISS:          0  dACCESS:   19515628  dHIT:   17626157  dMISS:    1889471  itACCESS:          0  itHIT:          0  itMISS:          0  dtACCESS:          0  dtHIT:          0  dtMISS:          0
cpu0_L1D RFO          ACCESS:          0  HIT:          0  MISS:          0  iACCESS:          0  iHIT:          0  iMISS:          0  dACCESS:          0  dHIT:          0  dMISS:          0  itACCESS:          0  itHIT:          0  itMISS:          0  dtACCESS:          0  dtHIT:          0  dtMISS:          0
cpu0_L1D PREFETCH     ACCESS:   13018635  HIT:   11230547  MISS:    1788088  iACCESS:          0  iHIT:          0  iMISS:          0  dACCESS:   13018635  dHIT:   11230547  dMISS:    1788088  itACCESS:          0  itHIT:          0  itMISS:          0  dtACCESS:          0  dtHIT:          0  dtMISS:          0
cpu0_L1D WRITE        ACCESS:   10130142  HIT:    9693856  MISS:     436286  iACCESS:          0  iHIT:          0  iMISS:          0  dACCESS:   10130142  dHIT:    9693856  dMISS:     436286  itACCESS:          0  itHIT:          0  itMISS:          0  dtACCESS:          0  dtHIT:          0  dtMISS:          0
cpu0_L1D TRANSLATION  ACCESS:     294421  HIT:      17810  MISS:     276611  iACCESS:          0  iHIT:          0  iMISS:          0  dACCESS:          0  dHIT:          0  dMISS:          0  itACCESS:      32693  itHIT:       2863  itMISS:      29830  dtACCESS:     261728  dtHIT:      14947  dtMISS:     246781
cpu0_L1D PREFETCH  REQUESTED:   19515628  ISSUED:   17347578  CROSSED:          0  USEFUL:     314277  USELESS:     716618
cpu0_L1D AVERAGE iMISS LATENCY: 0 cycles
cpu0_L1D AVERAGE dMISS LATENCY: 39.6547 cycles
cpu0_L1D AVERAGE itMISS LATENCY: 1.07182 cycles
cpu0_L1D AVERAGE dtMISS LATENCY: 7.9934 cycles
cpu0_L1D PAGE CROSSINGS (TLB HIT):         0 
cpu0_L1D PAGE CROSSINGS (TLB MISS):         0 
cpu0_L1D AVERAGE MISS LATENCY: 48.7199 cycles
cpu0_L2C TOTAL       ACCESS:    7448104  HIT:    3773458  MISS:    3674646  iACCESS:    3467552  iHIT:    2088890  iMISS:    1378662  dACCESS:    3713064  dHIT:    1642745  dMISS:    2070319  itACCESS:      29802  itHIT:       4305  itMISS:      25497  dtACCESS:     237686  dtHIT:      37518  dtMISS:     200168
cpu0_L2C LOAD         ACCESS:    1754575  HIT:     924929  MISS:     829646  iACCESS:     789726  iHIT:     504173  iMISS:     285553  dACCESS:     964849  dHIT:     420756  dMISS:     544093  itACCESS:          0  itHIT:          0  itMISS:          0  dtACCESS:          0  dtHIT:          0  dtMISS:          0
cpu0_L2C RFO          ACCESS:     159221  HIT:      63411  MISS:      95810  iACCESS:          0  iHIT:          0  iMISS:          0  dACCESS:     159221  dHIT:      63411  dMISS:      95810  itACCESS:          0  itHIT:          0  itMISS:          0  dtACCESS:          0  dtHIT:          0  dtMISS:          0
cpu0_L2C PREFETCH     ACCESS:    4989188  HIT:    2466980  MISS:    2522208  iACCESS:    2677826  iHIT:    1584717  iMISS:    1093109  dACCESS:    2311362  dHIT:     882263  dMISS:    1429099  itACCESS:          0  itHIT:          0  itMISS:          0  dtACCESS:          0  dtHIT:          0  dtMISS:          0
cpu0_L2C WRITE        ACCESS:     277632  HIT:     276315  MISS:       1317  iACCESS:          0  iHIT:          0  iMISS:          0  dACCESS:     277632  dHIT:     276315  dMISS:       1317  itACCESS:          0  itHIT:          0  itMISS:          0  dtACCESS:          0  dtHIT:          0  dtMISS:          0
cpu0_L2C TRANSLATION  ACCESS:     267488  HIT:      41823  MISS:     225665  iACCESS:          0  iHIT:          0  iMISS:          0  dACCESS:          0  dHIT:          0  dMISS:          0  itACCESS:      29802  itHIT:       4305  itMISS:      25497  dtACCESS:     237686  dtHIT:      37518  dtMISS:     200168
cpu0_L2C PREFETCH  REQUESTED:    1551592  ISSUED:    1551592  CROSSED:          0  USEFUL:     386400  USELESS:     305526
cpu0_L2C AVERAGE iMISS LATENCY: 34.3967 cycles
cpu0_L2C AVERAGE dMISS LATENCY: 61.0742 cycles
cpu0_L2C AVERAGE itMISS LATENCY: 1.20039 cycles
cpu0_L2C AVERAGE dtMISS LATENCY: 8.9101 cycles
cpu0_L2C PAGE CROSSINGS (TLB HIT):         0 
cpu0_L2C PAGE CROSSINGS (TLB MISS):         0 
cpu0_L2C AVERAGE MISS LATENCY: 105.582 cycles
LLC TOTAL       ACCESS:    3635665  HIT:    1649716  MISS:    1985949  iACCESS:    1297827  iHIT:     618068  iMISS:     679759  dACCESS:    2112173  dHIT:     981355  dMISS:    1130818  itACCESS:      25497  itHIT:       3522  itMISS:      21975  dtACCESS:     200168  dtHIT:      46771  dtMISS:     153397
LLC LOAD         ACCESS:     823426  HIT:     391092  MISS:     432334  iACCESS:     284349  iHIT:     142366  iMISS:     141983  dACCESS:     539077  dHIT:     248726  dMISS:     290351  itACCESS:          0  itHIT:          0  itMISS:          0  dtACCESS:          0  dtHIT:          0  dtMISS:          0
LLC RFO          ACCESS:      95772  HIT:      38730  MISS:      57042  iACCESS:          0  iHIT:          0  iMISS:          0  dACCESS:      95772  dHIT:      38730  dMISS:      57042  itACCESS:          0  itHIT:          0  itMISS:          0  dtACCESS:          0  dtHIT:          0  dtMISS:          0
LLC PREFETCH     ACCESS:    2340186  HIT:    1027620  MISS:    1312566  iACCESS:    1013478  iHIT:     475702  iMISS:     537776  dACCESS:    1326708  dHIT:     551918  dMISS:     774790  itACCESS:          0  itHIT:          0  itMISS:          0  dtACCESS:          0  dtHIT:          0  dtMISS:          0
LLC WRITE        ACCESS:     150616  HIT:     141981  MISS:       8635  iACCESS:          0  iHIT:          0  iMISS:          0  dACCESS:     150616  dHIT:     141981  dMISS:       8635  itACCESS:          0  itHIT:          0  itMISS:          0  dtACCESS:          0  dtHIT:          0  dtMISS:          0
LLC TRANSLATION  ACCESS:     225665  HIT:      50293  MISS:     175372  iACCESS:          0  iHIT:          0  iMISS:          0  dACCESS:          0  dHIT:          0  dMISS:          0  itACCESS:      25497  itHIT:       3522  itMISS:      21975  dtACCESS:     200168  dtHIT:      46771  dtMISS:     153397
LLC PREFETCH  REQUESTED:          0  ISSUED:          0  CROSSED:          0  USEFUL:          0  USELESS:          0
LLC AVERAGE iMISS LATENCY: 50.8737 cycles
LLC AVERAGE dMISS LATENCY: 94.7869 cycles
LLC AVERAGE itMISS LATENCY: 1.96719 cycles
LLC AVERAGE dtMISS LATENCY: 14.5029 cycles
LLC PAGE CROSSINGS (TLB HIT):         0 
LLC PAGE CROSSINGS (TLB MISS):         0 
LLC AVERAGE MISS LATENCY: 162.131 cycles

PageTableWalker TOTAL       ACCESS:     100871  
PageTableWalker AVERAGE LATENCY: 5.35569 cycles
PageTableWalker TOTAL LATENCY: 540233 cycles

DRAM Statistics
Channel 0
 RQ ROW_BUFFER_HIT:     542802
  ROW_BUFFER_MISS:    1416152
 AVG DBUS CONGESTED CYCLE:    3.63869
 WQ ROW_BUFFER_HIT:      37663
  ROW_BUFFER_MISS:      26114  FULL:          0

