last_page:0x200000000000000
VMEM_RES_CAP:0x100000
PAGE_SIZE:4096
LOG2_PAGE_SIZE:12
LOG2_PAGE_TABLE_SIZE:9
page_table_levels:5
WARNING: physical memory size is smaller than virtual memory size
FDiP enabled with aggresivity 16

*** ChampSim Multicore Out-of-Order Simulator ***

Warmup Instructions: 50000000
Simulation Instructions: 100000000
Number of CPUs: 1
Small page size: 4096
Large page size: 2097152

CPU 0 Bimodal branch predictor
Basic BTB sets: 1024 ways: 8 indirect buffer size: 4096 RAS size: 64
Instruction page size distrubution: 0
Loading instruction page size distribution from /home/bsc/bsc018186/scratch/itp_asplos25_AE/dump/srv743_ap.pdst
Data page size distrubution: 0
Loading data page size distribution from /home/bsc/bsc018186/scratch/itp_asplos25_AE/dump/srv743_ap.pdst
cpu0_L2C IP-based stride prefetcher
cpu0_L2C is using PTP replacement policy:
	TLB_STRESS_THRESHOLD:0
	PTE_EVICTION_RATIO:0
cpu0_L1D next line prefetcher
CHiRPing...
cpu0_L1I next line prefetcher
Off-chip DRAM Size: 4 GiB Channels: 1 Width: 64-bit Data Rate: 3200 MT/s
Heartbeat CPU 0 instructions: 10000000 cycles: 2500492 heartbeat IPC: 3.99922 cumulative IPC: 3.99922 (Simulation time: 0 hr 0 min 39 sec) 
Heartbeat CPU 0 instructions: 20000000 cycles: 5000760 heartbeat IPC: 3.99958 cumulative IPC: 3.9994 (Simulation time: 0 hr 1 min 19 sec) 
Heartbeat CPU 0 instructions: 30000002 cycles: 7500905 heartbeat IPC: 3.99977 cumulative IPC: 3.99952 (Simulation time: 0 hr 1 min 59 sec) 
Heartbeat CPU 0 instructions: 40000000 cycles: 10001752 heartbeat IPC: 3.99865 cumulative IPC: 3.9993 (Simulation time: 0 hr 2 min 40 sec) 
Heartbeat CPU 0 instructions: 50000001 cycles: 12502194 heartbeat IPC: 3.9993 cumulative IPC: 3.9993 (Simulation time: 0 hr 3 min 20 sec) 
Warmup finished CPU 0 instructions: 50000001 cycles: 12502195 cumulative IPC: 3.9993 (Simulation time: 0 hr 3 min 20 sec) 

Warmup complete CPU 0 instructions: 50000001 cycles: 12502195 (Simulation time: 0 hr 3 min 20 sec) 

Heartbeat CPU 0 instructions: 60000001 cycles: 24803985 heartbeat IPC: 0.81289 cumulative IPC: 0.81289 (Simulation time: 0 hr 4 min 23 sec) 
Heartbeat CPU 0 instructions: 70000004 cycles: 34096813 heartbeat IPC: 1.0761 cumulative IPC: 0.926157 (Simulation time: 0 hr 5 min 21 sec) 
Heartbeat CPU 0 instructions: 80000003 cycles: 49857137 heartbeat IPC: 0.634505 cumulative IPC: 0.803107 (Simulation time: 0 hr 6 min 27 sec) 
Heartbeat CPU 0 instructions: 90000002 cycles: 65960230 heartbeat IPC: 0.620999 cumulative IPC: 0.748251 (Simulation time: 0 hr 7 min 34 sec) 
Heartbeat CPU 0 instructions: 100000003 cycles: 82027940 heartbeat IPC: 0.622367 cumulative IPC: 0.719159 (Simulation time: 0 hr 8 min 42 sec) 
*** Reached end of trace: /gpfs/projects/bsc18/MN4/bsc18/romol/ChampSim/traces/qualcomm_srv/srv743_ap.champsimtrace.xz
Heartbeat CPU 0 instructions: 110000002 cycles: 97153258 heartbeat IPC: 0.661144 cumulative IPC: 0.708793 (Simulation time: 0 hr 9 min 47 sec) 
Heartbeat CPU 0 instructions: 120000002 cycles: 112681924 heartbeat IPC: 0.643971 cumulative IPC: 0.698745 (Simulation time: 0 hr 10 min 52 sec) 
Heartbeat CPU 0 instructions: 130000001 cycles: 128639950 heartbeat IPC: 0.626644 cumulative IPC: 0.688838 (Simulation time: 0 hr 11 min 58 sec) 
Heartbeat CPU 0 instructions: 140000001 cycles: 144388667 heartbeat IPC: 0.634973 cumulative IPC: 0.682406 (Simulation time: 0 hr 13 min 4 sec) 
Heartbeat CPU 0 instructions: 150000001 cycles: 159896712 heartbeat IPC: 0.644827 cumulative IPC: 0.678452 (Simulation time: 0 hr 14 min 10 sec) 
Simulation finished CPU 0 instructions: 100000000 cycles: 147394518 cumulative IPC: 0.678452 (Simulation time: 0 hr 14 min 10 sec) 

Simulation complete CPU 0 instructions: 100000000 cycles: 147394518 (Simulation time: 0 hr 14 min 10 sec) 


ChampSim completed all CPUs

Saving instructions large page distribution to /home/bsc/bsc018186/scratch/itp_asplos25_AE/dump/srv743_ap.pdst...
Saving data large page distribution to /home/bsc/bsc018186/scratch/itp_asplos25_AE/dump/srv743_ap.pdst...
=== Simulation ===
CPU 0 runs /gpfs/projects/bsc18/MN4/bsc18/romol/ChampSim/traces/qualcomm_srv/srv743_ap.champsimtrace.xz

Region of Interest Statistics

CPU 0 cumulative IPC: 0.678452 instructions: 100000000 cycles: 147394518
CPU 0 Branch Prediction Accuracy: 84.7044% MPKI: 29.3751 Average ROB Occupancy at Mispredict: 12.7691
Branch type MPKI
BRANCH_DIRECT_JUMP: 1.07634
BRANCH_INDIRECT: 14.8497
BRANCH_CONDITIONAL: 9.39465
BRANCH_DIRECT_CALL: 2.03057
BRANCH_INDIRECT_CALL: 0.589031
BRANCH_RETURN: 1.43488

Instructions large pages: 0
Instructions small pages: 1170
Large page distribution for instructions: 0%

Data large pages: 0
Data small pages: 10061
Large page distribution for data: 0%

cpu0_L1I TOTAL       ACCESS:   34523246  HIT:   27038506  MISS:    7484740  iACCESS:   34523246  iHIT:   27038506  iMISS:    7484740  dACCESS:          0  dHIT:          0  dMISS:          0  itACCESS:          0  itHIT:          0  itMISS:          0  dtACCESS:          0  dtHIT:          0  dtMISS:          0
cpu0_L1I LOAD         ACCESS:    9271260  HIT:    7191466  MISS:    2079794  iACCESS:    9271260  iHIT:    7191466  iMISS:    2079794  dACCESS:          0  dHIT:          0  dMISS:          0  itACCESS:          0  itHIT:          0  itMISS:          0  dtACCESS:          0  dtHIT:          0  dtMISS:          0
cpu0_L1I RFO          ACCESS:          0  HIT:          0  MISS:          0  iACCESS:          0  iHIT:          0  iMISS:          0  dACCESS:          0  dHIT:          0  dMISS:          0  itACCESS:          0  itHIT:          0  itMISS:          0  dtACCESS:          0  dtHIT:          0  dtMISS:          0
cpu0_L1I PREFETCH     ACCESS:   25251986  HIT:   19847040  MISS:    5404946  iACCESS:   25251986  iHIT:   19847040  iMISS:    5404946  dACCESS:          0  dHIT:          0  dMISS:          0  itACCESS:          0  itHIT:          0  itMISS:          0  dtACCESS:          0  dtHIT:          0  dtMISS:          0
cpu0_L1I WRITE        ACCESS:          0  HIT:          0  MISS:          0  iACCESS:          0  iHIT:          0  iMISS:          0  dACCESS:          0  dHIT:          0  dMISS:          0  itACCESS:          0  itHIT:          0  itMISS:          0  dtACCESS:          0  dtHIT:          0  dtMISS:          0
cpu0_L1I TRANSLATION  ACCESS:          0  HIT:          0  MISS:          0  iACCESS:          0  iHIT:          0  iMISS:          0  dACCESS:          0  dHIT:          0  dMISS:          0  itACCESS:          0  itHIT:          0  itMISS:          0  dtACCESS:          0  dtHIT:          0  dtMISS:          0
cpu0_L1I PREFETCH  REQUESTED:   27274225  ISSUED:   27273211  CROSSED:          0  USEFUL:    1724080  USELESS:     575776
cpu0_L1I AVERAGE iMISS LATENCY: 16.1081 cycles
cpu0_L1I AVERAGE dMISS LATENCY: 0 cycles
cpu0_L1I AVERAGE itMISS LATENCY: 0 cycles
cpu0_L1I AVERAGE dtMISS LATENCY: 0 cycles
cpu0_L1I PAGE CROSSINGS (TLB HIT):         0 
cpu0_L1I PAGE CROSSINGS (TLB MISS):         0 
cpu0_L1I AVERAGE MISS LATENCY: 16.1081 cycles
cpu0_ITLB TOTAL       ACCESS:   28784788  HIT:   27033782  MISS:    1751006  iACCESS:   28784788  iHIT:   27033782  iMISS:    1751006  dACCESS:          0  dHIT:          0  dMISS:          0  itACCESS:          0  itHIT:          0  itMISS:          0  dtACCESS:          0  dtHIT:          0  dtMISS:          0
cpu0_ITLB LOAD         ACCESS:   28784788  HIT:   27033782  MISS:    1751006  iACCESS:   28784788  iHIT:   27033782  iMISS:    1751006  dACCESS:          0  dHIT:          0  dMISS:          0  itACCESS:          0  itHIT:          0  itMISS:          0  dtACCESS:          0  dtHIT:          0  dtMISS:          0
cpu0_ITLB RFO          ACCESS:          0  HIT:          0  MISS:          0  iACCESS:          0  iHIT:          0  iMISS:          0  dACCESS:          0  dHIT:          0  dMISS:          0  itACCESS:          0  itHIT:          0  itMISS:          0  dtACCESS:          0  dtHIT:          0  dtMISS:          0
cpu0_ITLB PREFETCH     ACCESS:          0  HIT:          0  MISS:          0  iACCESS:          0  iHIT:          0  iMISS:          0  dACCESS:          0  dHIT:          0  dMISS:          0  itACCESS:          0  itHIT:          0  itMISS:          0  dtACCESS:          0  dtHIT:          0  dtMISS:          0
cpu0_ITLB WRITE        ACCESS:          0  HIT:          0  MISS:          0  iACCESS:          0  iHIT:          0  iMISS:          0  dACCESS:          0  dHIT:          0  dMISS:          0  itACCESS:          0  itHIT:          0  itMISS:          0  dtACCESS:          0  dtHIT:          0  dtMISS:          0
cpu0_ITLB TRANSLATION  ACCESS:          0  HIT:          0  MISS:          0  iACCESS:          0  iHIT:          0  iMISS:          0  dACCESS:          0  dHIT:          0  dMISS:          0  itACCESS:          0  itHIT:          0  itMISS:          0  dtACCESS:          0  dtHIT:          0  dtMISS:          0
cpu0_ITLB PREFETCH  REQUESTED:          0  ISSUED:          0  CROSSED:          0  USEFUL:     294384  USELESS:      59210
cpu0_ITLB AVERAGE iMISS LATENCY: 3.24544 cycles
cpu0_ITLB AVERAGE dMISS LATENCY: 0 cycles
cpu0_ITLB AVERAGE itMISS LATENCY: 0 cycles
cpu0_ITLB AVERAGE dtMISS LATENCY: 0 cycles
cpu0_ITLB PAGE CROSSINGS (TLB HIT):         0 
cpu0_ITLB PAGE CROSSINGS (TLB MISS):         0 
cpu0_ITLB AVERAGE MISS LATENCY: 3.24544 cycles
cpu0_DTLB TOTAL       ACCESS:   29558397  HIT:   25440559  MISS:    4117838  iACCESS:          0  iHIT:          0  iMISS:          0  dACCESS:   29558397  dHIT:   25440559  dMISS:    4117838  itACCESS:          0  itHIT:          0  itMISS:          0  dtACCESS:          0  dtHIT:          0  dtMISS:          0
cpu0_DTLB LOAD         ACCESS:   29558397  HIT:   25440559  MISS:    4117838  iACCESS:          0  iHIT:          0  iMISS:          0  dACCESS:   29558397  dHIT:   25440559  dMISS:    4117838  itACCESS:          0  itHIT:          0  itMISS:          0  dtACCESS:          0  dtHIT:          0  dtMISS:          0
cpu0_DTLB RFO          ACCESS:          0  HIT:          0  MISS:          0  iACCESS:          0  iHIT:          0  iMISS:          0  dACCESS:          0  dHIT:          0  dMISS:          0  itACCESS:          0  itHIT:          0  itMISS:          0  dtACCESS:          0  dtHIT:          0  dtMISS:          0
cpu0_DTLB PREFETCH     ACCESS:          0  HIT:          0  MISS:          0  iACCESS:          0  iHIT:          0  iMISS:          0  dACCESS:          0  dHIT:          0  dMISS:          0  itACCESS:          0  itHIT:          0  itMISS:          0  dtACCESS:          0  dtHIT:          0  dtMISS:          0
cpu0_DTLB WRITE        ACCESS:          0  HIT:          0  MISS:          0  iACCESS:          0  iHIT:          0  iMISS:          0  dACCESS:          0  dHIT:          0  dMISS:          0  itACCESS:          0  itHIT:          0  itMISS:          0  dtACCESS:          0  dtHIT:          0  dtMISS:          0
cpu0_DTLB TRANSLATION  ACCESS:          0  HIT:          0  MISS:          0  iACCESS:          0  iHIT:          0  iMISS:          0  dACCESS:          0  dHIT:          0  dMISS:          0  itACCESS:          0  itHIT:          0  itMISS:          0  dtACCESS:          0  dtHIT:          0  dtMISS:          0
cpu0_DTLB PREFETCH  REQUESTED:          0  ISSUED:          0  CROSSED:          0  USEFUL:          0  USELESS:          0
cpu0_DTLB AVERAGE iMISS LATENCY: 0 cycles
cpu0_DTLB AVERAGE dMISS LATENCY: 6.27865 cycles
cpu0_DTLB AVERAGE itMISS LATENCY: 0 cycles
cpu0_DTLB AVERAGE dtMISS LATENCY: 0 cycles
cpu0_DTLB PAGE CROSSINGS (TLB HIT):         0 
cpu0_DTLB PAGE CROSSINGS (TLB MISS):         0 
cpu0_DTLB AVERAGE MISS LATENCY: 6.27865 cycles
cpu0_STLB TOTAL       ACCESS:    2494005  HIT:    2303246  MISS:     190759  iACCESS:     353612  iHIT:     280653  iMISS:      72959  dACCESS:    2140393  dHIT:    2022593  dMISS:     117800  itACCESS:          0  itHIT:          0  itMISS:          0  dtACCESS:          0  dtHIT:          0  dtMISS:          0
cpu0_STLB LOAD         ACCESS:    2494005  HIT:    2303246  MISS:     190759  iACCESS:     353612  iHIT:     280653  iMISS:      72959  dACCESS:    2140393  dHIT:    2022593  dMISS:     117800  itACCESS:          0  itHIT:          0  itMISS:          0  dtACCESS:          0  dtHIT:          0  dtMISS:          0
cpu0_STLB RFO          ACCESS:          0  HIT:          0  MISS:          0  iACCESS:          0  iHIT:          0  iMISS:          0  dACCESS:          0  dHIT:          0  dMISS:          0  itACCESS:          0  itHIT:          0  itMISS:          0  dtACCESS:          0  dtHIT:          0  dtMISS:          0
cpu0_STLB PREFETCH     ACCESS:          0  HIT:          0  MISS:          0  iACCESS:          0  iHIT:          0  iMISS:          0  dACCESS:          0  dHIT:          0  dMISS:          0  itACCESS:          0  itHIT:          0  itMISS:          0  dtACCESS:          0  dtHIT:          0  dtMISS:          0
cpu0_STLB WRITE        ACCESS:          0  HIT:          0  MISS:          0  iACCESS:          0  iHIT:          0  iMISS:          0  dACCESS:          0  dHIT:          0  dMISS:          0  itACCESS:          0  itHIT:          0  itMISS:          0  dtACCESS:          0  dtHIT:          0  dtMISS:          0
cpu0_STLB TRANSLATION  ACCESS:          0  HIT:          0  MISS:          0  iACCESS:          0  iHIT:          0  iMISS:          0  dACCESS:          0  dHIT:          0  dMISS:          0  itACCESS:          0  itHIT:          0  itMISS:          0  dtACCESS:          0  dtHIT:          0  dtMISS:          0
cpu0_STLB PREFETCH  REQUESTED:          0  ISSUED:          0  CROSSED:          0  USEFUL:          0  USELESS:          0
cpu0_STLB AVERAGE iMISS LATENCY: 15.0488 cycles
cpu0_STLB AVERAGE dMISS LATENCY: 45.0173 cycles
cpu0_STLB AVERAGE itMISS LATENCY: 0 cycles
cpu0_STLB AVERAGE dtMISS LATENCY: 0 cycles
cpu0_STLB PAGE CROSSINGS (TLB HIT):         0 
cpu0_STLB PAGE CROSSINGS (TLB MISS):         0 
cpu0_STLB AVERAGE MISS LATENCY: 60.0661 cycles
cpu0_L1D TOTAL       ACCESS:   45091567  HIT:   38653076  MISS:    6438491  iACCESS:          0  iHIT:          0  iMISS:          0  dACCESS:   44834654  dHIT:   38629395  dMISS:    6205259  itACCESS:      79010  itHIT:      11708  itMISS:      67302  dtACCESS:     177903  dtHIT:      11973  dtMISS:     165930
cpu0_L1D LOAD         ACCESS:   21724204  HIT:   18158402  MISS:    3565802  iACCESS:          0  iHIT:          0  iMISS:          0  dACCESS:   21724204  dHIT:   18158402  dMISS:    3565802  itACCESS:          0  itHIT:          0  itMISS:          0  dtACCESS:          0  dtHIT:          0  dtMISS:          0
cpu0_L1D RFO          ACCESS:          0  HIT:          0  MISS:          0  iACCESS:          0  iHIT:          0  iMISS:          0  dACCESS:          0  dHIT:          0  dMISS:          0  itACCESS:          0  itHIT:          0  itMISS:          0  dtACCESS:          0  dtHIT:          0  dtMISS:          0
cpu0_L1D PREFETCH     ACCESS:   13206870  HIT:   11037965  MISS:    2168905  iACCESS:          0  iHIT:          0  iMISS:          0  dACCESS:   13206870  dHIT:   11037965  dMISS:    2168905  itACCESS:          0  itHIT:          0  itMISS:          0  dtACCESS:          0  dtHIT:          0  dtMISS:          0
cpu0_L1D WRITE        ACCESS:    9903580  HIT:    9433028  MISS:     470552  iACCESS:          0  iHIT:          0  iMISS:          0  dACCESS:    9903580  dHIT:    9433028  dMISS:     470552  itACCESS:          0  itHIT:          0  itMISS:          0  dtACCESS:          0  dtHIT:          0  dtMISS:          0
cpu0_L1D TRANSLATION  ACCESS:     256913  HIT:      23681  MISS:     233232  iACCESS:          0  iHIT:          0  iMISS:          0  dACCESS:          0  dHIT:          0  dMISS:          0  itACCESS:      79010  itHIT:      11708  itMISS:      67302  dtACCESS:     177903  dtHIT:      11973  dtMISS:     165930
cpu0_L1D PREFETCH  REQUESTED:   21724204  ISSUED:   17164431  CROSSED:          0  USEFUL:     272282  USELESS:     707132
cpu0_L1D AVERAGE iMISS LATENCY: 0 cycles
cpu0_L1D AVERAGE dMISS LATENCY: 25.4409 cycles
cpu0_L1D AVERAGE itMISS LATENCY: 0.344122 cycles
cpu0_L1D AVERAGE dtMISS LATENCY: 0.953821 cycles
cpu0_L1D PAGE CROSSINGS (TLB HIT):         0 
cpu0_L1D PAGE CROSSINGS (TLB MISS):         0 
cpu0_L1D AVERAGE MISS LATENCY: 26.7389 cycles
cpu0_L2C TOTAL       ACCESS:    7824745  HIT:    1741189  MISS:    6083556  iACCESS:    2967185  iHIT:     617763  iMISS:    2349422  dACCESS:    4636219  dHIT:     941349  dMISS:    3694870  itACCESS:      67302  itHIT:      55356  itMISS:      11946  dtACCESS:     154039  dtHIT:     126721  dtMISS:      27318
cpu0_L2C LOAD         ACCESS:    2932148  HIT:     675147  MISS:    2257001  iACCESS:     696861  iHIT:      90651  iMISS:     606210  dACCESS:    2235287  dHIT:     584496  dMISS:    1650791  itACCESS:          0  itHIT:          0  itMISS:          0  dtACCESS:          0  dtHIT:          0  dtMISS:          0
cpu0_L2C RFO          ACCESS:     170527  HIT:       9724  MISS:     160803  iACCESS:          0  iHIT:          0  iMISS:          0  dACCESS:     170527  dHIT:       9724  dMISS:     160803  itACCESS:          0  itHIT:          0  itMISS:          0  dtACCESS:          0  dtHIT:          0  dtMISS:          0
cpu0_L2C PREFETCH     ACCESS:    4247175  HIT:     826551  MISS:    3420624  iACCESS:    2270324  iHIT:     527112  iMISS:    1743212  dACCESS:    1976851  dHIT:     299439  dMISS:    1677412  itACCESS:          0  itHIT:          0  itMISS:          0  dtACCESS:          0  dtHIT:          0  dtMISS:          0
cpu0_L2C WRITE        ACCESS:     253554  HIT:      47690  MISS:     205864  iACCESS:          0  iHIT:          0  iMISS:          0  dACCESS:     253554  dHIT:      47690  dMISS:     205864  itACCESS:          0  itHIT:          0  itMISS:          0  dtACCESS:          0  dtHIT:          0  dtMISS:          0
cpu0_L2C TRANSLATION  ACCESS:     221341  HIT:     182077  MISS:      39264  iACCESS:          0  iHIT:          0  iMISS:          0  dACCESS:          0  dHIT:          0  dMISS:          0  itACCESS:      67302  itHIT:      55356  itMISS:      11946  dtACCESS:     154039  dtHIT:     126721  dtMISS:      27318
cpu0_L2C PREFETCH  REQUESTED:    1214165  ISSUED:    1214165  CROSSED:          0  USEFUL:     357271  USELESS:     360485
cpu0_L2C AVERAGE iMISS LATENCY: 15.3598 cycles
cpu0_L2C AVERAGE dMISS LATENCY: 28.4828 cycles
cpu0_L2C AVERAGE itMISS LATENCY: 0.262416 cycles
cpu0_L2C AVERAGE dtMISS LATENCY: 0.776018 cycles
cpu0_L2C PAGE CROSSINGS (TLB HIT):         0 
cpu0_L2C PAGE CROSSINGS (TLB MISS):         0 
cpu0_L2C AVERAGE MISS LATENCY: 44.8809 cycles
LLC TOTAL       ACCESS:    5995533  HIT:    4986387  MISS:    1009146  iACCESS:    2294483  iHIT:    1957548  iMISS:     336935  dACCESS:    3661786  dHIT:    3020557  dMISS:     641229  itACCESS:      11946  itHIT:       4109  itMISS:       7837  dtACCESS:      27318  dtHIT:       4173  dtMISS:      23145
LLC LOAD         ACCESS:    2254716  HIT:    2015931  MISS:     238785  iACCESS:     604916  iHIT:     533464  iMISS:      71452  dACCESS:    1649800  dHIT:    1482467  dMISS:     167333  itACCESS:          0  itHIT:          0  itMISS:          0  dtACCESS:          0  dtHIT:          0  dtMISS:          0
LLC RFO          ACCESS:     160803  HIT:     107665  MISS:      53138  iACCESS:          0  iHIT:          0  iMISS:          0  dACCESS:     160803  dHIT:     107665  dMISS:      53138  itACCESS:          0  itHIT:          0  itMISS:          0  dtACCESS:          0  dtHIT:          0  dtMISS:          0
LLC PREFETCH     ACCESS:    3310124  HIT:    2623883  MISS:     686241  iACCESS:    1689567  iHIT:    1424084  iMISS:     265483  dACCESS:    1620557  dHIT:    1199799  dMISS:     420758  itACCESS:          0  itHIT:          0  itMISS:          0  dtACCESS:          0  dtHIT:          0  dtMISS:          0
LLC WRITE        ACCESS:     230626  HIT:     230626  MISS:          0  iACCESS:          0  iHIT:          0  iMISS:          0  dACCESS:     230626  dHIT:     230626  dMISS:          0  itACCESS:          0  itHIT:          0  itMISS:          0  dtACCESS:          0  dtHIT:          0  dtMISS:          0
LLC TRANSLATION  ACCESS:      39264  HIT:       8282  MISS:      30982  iACCESS:          0  iHIT:          0  iMISS:          0  dACCESS:          0  dHIT:          0  dMISS:          0  itACCESS:      11946  itHIT:       4109  itMISS:       7837  dtACCESS:      27318  dtHIT:       4173  dtMISS:      23145
LLC PREFETCH  REQUESTED:          0  ISSUED:          0  CROSSED:          0  USEFUL:          0  USELESS:          0
LLC AVERAGE iMISS LATENCY: 48.6569 cycles
LLC AVERAGE dMISS LATENCY: 105.987 cycles
LLC AVERAGE itMISS LATENCY: 1.34976 cycles
LLC AVERAGE dtMISS LATENCY: 4.14409 cycles
LLC PAGE CROSSINGS (TLB HIT):         0 
LLC PAGE CROSSINGS (TLB MISS):         0 
LLC AVERAGE MISS LATENCY: 160.138 cycles

PageTableWalker TOTAL       ACCESS:     107042  
PageTableWalker AVERAGE LATENCY: 4.13828 cycles
PageTableWalker TOTAL LATENCY: 442969 cycles

DRAM Statistics
Channel 0
 RQ ROW_BUFFER_HIT:     297424
  ROW_BUFFER_MISS:     710991
 AVG DBUS CONGESTED CYCLE:    3.64253
 WQ ROW_BUFFER_HIT:      27196
  ROW_BUFFER_MISS:      31728  FULL:          0

