last_page:0x200000000000000
VMEM_RES_CAP:0x100000
PAGE_SIZE:4096
LOG2_PAGE_SIZE:12
LOG2_PAGE_TABLE_SIZE:9
page_table_levels:5
WARNING: physical memory size is smaller than virtual memory size
FDiP enabled with aggresivity 16

*** ChampSim Multicore Out-of-Order Simulator ***

Warmup Instructions: 50000000
Simulation Instructions: 100000000
Number of CPUs: 1
Small page size: 4096
Large page size: 2097152

CPU 0 Bimodal branch predictor
Basic BTB sets: 1024 ways: 8 indirect buffer size: 4096 RAS size: 64
Instruction page size distrubution: 0
Loading instruction page size distribution from /home/bsc/bsc018186/scratch/itp_asplos25_AE/dump/srv702_ap.pdst
Data page size distrubution: 0
Loading data page size distribution from /home/bsc/bsc018186/scratch/itp_asplos25_AE/dump/srv702_ap.pdst
cpu0_L2C IP-based stride prefetcher
cpu0_L1D next line prefetcher
CHiRPing...
cpu0_L1I next line prefetcher
Off-chip DRAM Size: 4 GiB Channels: 1 Width: 64-bit Data Rate: 3200 MT/s
Heartbeat CPU 0 instructions: 10000003 cycles: 2500230 heartbeat IPC: 3.99964 cumulative IPC: 3.99964 (Simulation time: 0 hr 0 min 39 sec) 
Heartbeat CPU 0 instructions: 20000002 cycles: 5000274 heartbeat IPC: 3.99993 cumulative IPC: 3.99979 (Simulation time: 0 hr 1 min 20 sec) 
Heartbeat CPU 0 instructions: 30000002 cycles: 7500297 heartbeat IPC: 3.99997 cumulative IPC: 3.99985 (Simulation time: 0 hr 2 min 1 sec) 
Heartbeat CPU 0 instructions: 40000003 cycles: 10000384 heartbeat IPC: 3.99987 cumulative IPC: 3.99985 (Simulation time: 0 hr 2 min 42 sec) 
Heartbeat CPU 0 instructions: 50000002 cycles: 12500384 heartbeat IPC: 4 cumulative IPC: 3.99988 (Simulation time: 0 hr 3 min 24 sec) 
Warmup finished CPU 0 instructions: 50000002 cycles: 12500385 cumulative IPC: 3.99988 (Simulation time: 0 hr 3 min 24 sec) 

Warmup complete CPU 0 instructions: 50000002 cycles: 12500385 (Simulation time: 0 hr 3 min 24 sec) 

Heartbeat CPU 0 instructions: 60000002 cycles: 31539455 heartbeat IPC: 0.525236 cumulative IPC: 0.525236 (Simulation time: 0 hr 4 min 35 sec) 
Heartbeat CPU 0 instructions: 70000004 cycles: 49890361 heartbeat IPC: 0.544933 cumulative IPC: 0.534903 (Simulation time: 0 hr 5 min 46 sec) 
Heartbeat CPU 0 instructions: 80000001 cycles: 68079989 heartbeat IPC: 0.549764 cumulative IPC: 0.539767 (Simulation time: 0 hr 6 min 56 sec) 
Heartbeat CPU 0 instructions: 90000000 cycles: 87800382 heartbeat IPC: 0.50709 cumulative IPC: 0.531209 (Simulation time: 0 hr 8 min 8 sec) 
Heartbeat CPU 0 instructions: 100000000 cycles: 106160114 heartbeat IPC: 0.544671 cumulative IPC: 0.533848 (Simulation time: 0 hr 9 min 19 sec) 
*** Reached end of trace: /gpfs/projects/bsc18/MN4/bsc18/romol/ChampSim/traces/qualcomm_srv/srv702_ap.champsimtrace.xz
Heartbeat CPU 0 instructions: 110000002 cycles: 125051796 heartbeat IPC: 0.529334 cumulative IPC: 0.53309 (Simulation time: 0 hr 10 min 30 sec) 
Heartbeat CPU 0 instructions: 120000001 cycles: 143201159 heartbeat IPC: 0.550984 cumulative IPC: 0.535575 (Simulation time: 0 hr 11 min 40 sec) 
Heartbeat CPU 0 instructions: 130000003 cycles: 161811768 heartbeat IPC: 0.537329 cumulative IPC: 0.535794 (Simulation time: 0 hr 12 min 50 sec) 
Heartbeat CPU 0 instructions: 140000001 cycles: 181515401 heartbeat IPC: 0.507521 cumulative IPC: 0.532498 (Simulation time: 0 hr 14 min 3 sec) 
Heartbeat CPU 0 instructions: 150000001 cycles: 199494892 heartbeat IPC: 0.55619 cumulative IPC: 0.534776 (Simulation time: 0 hr 15 min 13 sec) 
Simulation finished CPU 0 instructions: 100000001 cycles: 186994511 cumulative IPC: 0.534776 (Simulation time: 0 hr 15 min 13 sec) 

Simulation complete CPU 0 instructions: 100000001 cycles: 186994511 (Simulation time: 0 hr 15 min 13 sec) 


ChampSim completed all CPUs

Saving instructions large page distribution to /home/bsc/bsc018186/scratch/itp_asplos25_AE/dump/srv702_ap.pdst...
Saving data large page distribution to /home/bsc/bsc018186/scratch/itp_asplos25_AE/dump/srv702_ap.pdst...
=== Simulation ===
CPU 0 runs /gpfs/projects/bsc18/MN4/bsc18/romol/ChampSim/traces/qualcomm_srv/srv702_ap.champsimtrace.xz

Region of Interest Statistics

CPU 0 cumulative IPC: 0.534776 instructions: 100000001 cycles: 186994511
CPU 0 Branch Prediction Accuracy: 79.7342% MPKI: 36.6083 Average ROB Occupancy at Mispredict: 10.0962
Branch type MPKI
BRANCH_DIRECT_JUMP: 1.37339
BRANCH_INDIRECT: 18.4176
BRANCH_CONDITIONAL: 11.8353
BRANCH_DIRECT_CALL: 2.56441
BRANCH_INDIRECT_CALL: 0.65933
BRANCH_RETURN: 1.75823

Instructions large pages: 0
Instructions small pages: 6206
Large page distribution for instructions: 0%

Data large pages: 0
Data small pages: 5147
Large page distribution for data: 0%

cpu0_L1I TOTAL       ACCESS:   36600345  HIT:   27998139  MISS:    8602206  iACCESS:   36600345  iHIT:   27998139  iMISS:    8602206  dACCESS:          0  dHIT:          0  dMISS:          0  itACCESS:          0  itHIT:          0  itMISS:          0  dtACCESS:          0  dtHIT:          0  dtMISS:          0
cpu0_L1I LOAD         ACCESS:   10688984  HIT:    8329767  MISS:    2359217  iACCESS:   10688984  iHIT:    8329767  iMISS:    2359217  dACCESS:          0  dHIT:          0  dMISS:          0  itACCESS:          0  itHIT:          0  itMISS:          0  dtACCESS:          0  dtHIT:          0  dtMISS:          0
cpu0_L1I RFO          ACCESS:          0  HIT:          0  MISS:          0  iACCESS:          0  iHIT:          0  iMISS:          0  dACCESS:          0  dHIT:          0  dMISS:          0  itACCESS:          0  itHIT:          0  itMISS:          0  dtACCESS:          0  dtHIT:          0  dtMISS:          0
cpu0_L1I PREFETCH     ACCESS:   25911361  HIT:   19668372  MISS:    6242989  iACCESS:   25911361  iHIT:   19668372  iMISS:    6242989  dACCESS:          0  dHIT:          0  dMISS:          0  itACCESS:          0  itHIT:          0  itMISS:          0  dtACCESS:          0  dtHIT:          0  dtMISS:          0
cpu0_L1I WRITE        ACCESS:          0  HIT:          0  MISS:          0  iACCESS:          0  iHIT:          0  iMISS:          0  dACCESS:          0  dHIT:          0  dMISS:          0  itACCESS:          0  itHIT:          0  itMISS:          0  dtACCESS:          0  dtHIT:          0  dtMISS:          0
cpu0_L1I TRANSLATION  ACCESS:          0  HIT:          0  MISS:          0  iACCESS:          0  iHIT:          0  iMISS:          0  dACCESS:          0  dHIT:          0  dMISS:          0  itACCESS:          0  itHIT:          0  itMISS:          0  dtACCESS:          0  dtHIT:          0  dtMISS:          0
cpu0_L1I PREFETCH  REQUESTED:   28263419  ISSUED:   28261180  CROSSED:          0  USEFUL:    2053201  USELESS:     668585
cpu0_L1I AVERAGE iMISS LATENCY: 18.5809 cycles
cpu0_L1I AVERAGE dMISS LATENCY: 0 cycles
cpu0_L1I AVERAGE itMISS LATENCY: 0 cycles
cpu0_L1I AVERAGE dtMISS LATENCY: 0 cycles
cpu0_L1I PAGE CROSSINGS (TLB HIT):         0 
cpu0_L1I PAGE CROSSINGS (TLB MISS):         0 
cpu0_L1I AVERAGE MISS LATENCY: 18.5809 cycles
cpu0_ITLB TOTAL       ACCESS:   30540701  HIT:   28568855  MISS:    1971846  iACCESS:   30540701  iHIT:   28568855  iMISS:    1971846  dACCESS:          0  dHIT:          0  dMISS:          0  itACCESS:          0  itHIT:          0  itMISS:          0  dtACCESS:          0  dtHIT:          0  dtMISS:          0
cpu0_ITLB LOAD         ACCESS:   30540701  HIT:   28568855  MISS:    1971846  iACCESS:   30540701  iHIT:   28568855  iMISS:    1971846  dACCESS:          0  dHIT:          0  dMISS:          0  itACCESS:          0  itHIT:          0  itMISS:          0  dtACCESS:          0  dtHIT:          0  dtMISS:          0
cpu0_ITLB RFO          ACCESS:          0  HIT:          0  MISS:          0  iACCESS:          0  iHIT:          0  iMISS:          0  dACCESS:          0  dHIT:          0  dMISS:          0  itACCESS:          0  itHIT:          0  itMISS:          0  dtACCESS:          0  dtHIT:          0  dtMISS:          0
cpu0_ITLB PREFETCH     ACCESS:          0  HIT:          0  MISS:          0  iACCESS:          0  iHIT:          0  iMISS:          0  dACCESS:          0  dHIT:          0  dMISS:          0  itACCESS:          0  itHIT:          0  itMISS:          0  dtACCESS:          0  dtHIT:          0  dtMISS:          0
cpu0_ITLB WRITE        ACCESS:          0  HIT:          0  MISS:          0  iACCESS:          0  iHIT:          0  iMISS:          0  dACCESS:          0  dHIT:          0  dMISS:          0  itACCESS:          0  itHIT:          0  itMISS:          0  dtACCESS:          0  dtHIT:          0  dtMISS:          0
cpu0_ITLB TRANSLATION  ACCESS:          0  HIT:          0  MISS:          0  iACCESS:          0  iHIT:          0  iMISS:          0  dACCESS:          0  dHIT:          0  dMISS:          0  itACCESS:          0  itHIT:          0  itMISS:          0  dtACCESS:          0  dtHIT:          0  dtMISS:          0
cpu0_ITLB PREFETCH  REQUESTED:          0  ISSUED:          0  CROSSED:          0  USEFUL:     334197  USELESS:      66835
cpu0_ITLB AVERAGE iMISS LATENCY: 4.13312 cycles
cpu0_ITLB AVERAGE dMISS LATENCY: 0 cycles
cpu0_ITLB AVERAGE itMISS LATENCY: 0 cycles
cpu0_ITLB AVERAGE dtMISS LATENCY: 0 cycles
cpu0_ITLB PAGE CROSSINGS (TLB HIT):         0 
cpu0_ITLB PAGE CROSSINGS (TLB MISS):         0 
cpu0_ITLB AVERAGE MISS LATENCY: 4.13312 cycles
cpu0_DTLB TOTAL       ACCESS:   28018836  HIT:   26069644  MISS:    1949192  iACCESS:          0  iHIT:          0  iMISS:          0  dACCESS:   28018836  dHIT:   26069644  dMISS:    1949192  itACCESS:          0  itHIT:          0  itMISS:          0  dtACCESS:          0  dtHIT:          0  dtMISS:          0
cpu0_DTLB LOAD         ACCESS:   28018836  HIT:   26069644  MISS:    1949192  iACCESS:          0  iHIT:          0  iMISS:          0  dACCESS:   28018836  dHIT:   26069644  dMISS:    1949192  itACCESS:          0  itHIT:          0  itMISS:          0  dtACCESS:          0  dtHIT:          0  dtMISS:          0
cpu0_DTLB RFO          ACCESS:          0  HIT:          0  MISS:          0  iACCESS:          0  iHIT:          0  iMISS:          0  dACCESS:          0  dHIT:          0  dMISS:          0  itACCESS:          0  itHIT:          0  itMISS:          0  dtACCESS:          0  dtHIT:          0  dtMISS:          0
cpu0_DTLB PREFETCH     ACCESS:          0  HIT:          0  MISS:          0  iACCESS:          0  iHIT:          0  iMISS:          0  dACCESS:          0  dHIT:          0  dMISS:          0  itACCESS:          0  itHIT:          0  itMISS:          0  dtACCESS:          0  dtHIT:          0  dtMISS:          0
cpu0_DTLB WRITE        ACCESS:          0  HIT:          0  MISS:          0  iACCESS:          0  iHIT:          0  iMISS:          0  dACCESS:          0  dHIT:          0  dMISS:          0  itACCESS:          0  itHIT:          0  itMISS:          0  dtACCESS:          0  dtHIT:          0  dtMISS:          0
cpu0_DTLB TRANSLATION  ACCESS:          0  HIT:          0  MISS:          0  iACCESS:          0  iHIT:          0  iMISS:          0  dACCESS:          0  dHIT:          0  dMISS:          0  itACCESS:          0  itHIT:          0  itMISS:          0  dtACCESS:          0  dtHIT:          0  dtMISS:          0
cpu0_DTLB PREFETCH  REQUESTED:          0  ISSUED:          0  CROSSED:          0  USEFUL:          0  USELESS:          0
cpu0_DTLB AVERAGE iMISS LATENCY: 0 cycles
cpu0_DTLB AVERAGE dMISS LATENCY: 11.9228 cycles
cpu0_DTLB AVERAGE itMISS LATENCY: 0 cycles
cpu0_DTLB AVERAGE dtMISS LATENCY: 0 cycles
cpu0_DTLB PAGE CROSSINGS (TLB HIT):         0 
cpu0_DTLB PAGE CROSSINGS (TLB MISS):         0 
cpu0_DTLB AVERAGE MISS LATENCY: 11.9228 cycles
cpu0_STLB TOTAL       ACCESS:    1625601  HIT:    1393842  MISS:     231759  iACCESS:     401049  iHIT:     312933  iMISS:      88116  dACCESS:    1224552  dHIT:    1080909  dMISS:     143643  itACCESS:          0  itHIT:          0  itMISS:          0  dtACCESS:          0  dtHIT:          0  dtMISS:          0
cpu0_STLB LOAD         ACCESS:    1625601  HIT:    1393842  MISS:     231759  iACCESS:     401049  iHIT:     312933  iMISS:      88116  dACCESS:    1224552  dHIT:    1080909  dMISS:     143643  itACCESS:          0  itHIT:          0  itMISS:          0  dtACCESS:          0  dtHIT:          0  dtMISS:          0
cpu0_STLB RFO          ACCESS:          0  HIT:          0  MISS:          0  iACCESS:          0  iHIT:          0  iMISS:          0  dACCESS:          0  dHIT:          0  dMISS:          0  itACCESS:          0  itHIT:          0  itMISS:          0  dtACCESS:          0  dtHIT:          0  dtMISS:          0
cpu0_STLB PREFETCH     ACCESS:          0  HIT:          0  MISS:          0  iACCESS:          0  iHIT:          0  iMISS:          0  dACCESS:          0  dHIT:          0  dMISS:          0  itACCESS:          0  itHIT:          0  itMISS:          0  dtACCESS:          0  dtHIT:          0  dtMISS:          0
cpu0_STLB WRITE        ACCESS:          0  HIT:          0  MISS:          0  iACCESS:          0  iHIT:          0  iMISS:          0  dACCESS:          0  dHIT:          0  dMISS:          0  itACCESS:          0  itHIT:          0  itMISS:          0  dtACCESS:          0  dtHIT:          0  dtMISS:          0
cpu0_STLB TRANSLATION  ACCESS:          0  HIT:          0  MISS:          0  iACCESS:          0  iHIT:          0  iMISS:          0  dACCESS:          0  dHIT:          0  dMISS:          0  itACCESS:          0  itHIT:          0  itMISS:          0  dtACCESS:          0  dtHIT:          0  dtMISS:          0
cpu0_STLB PREFETCH  REQUESTED:          0  ISSUED:          0  CROSSED:          0  USEFUL:          0  USELESS:          0
cpu0_STLB AVERAGE iMISS LATENCY: 21.3781 cycles
cpu0_STLB AVERAGE dMISS LATENCY: 58.1185 cycles
cpu0_STLB AVERAGE itMISS LATENCY: 0 cycles
cpu0_STLB AVERAGE dtMISS LATENCY: 0 cycles
cpu0_STLB PAGE CROSSINGS (TLB HIT):         0 
cpu0_STLB PAGE CROSSINGS (TLB MISS):         0 
cpu0_STLB AVERAGE MISS LATENCY: 79.4966 cycles
cpu0_L1D TOTAL       ACCESS:   42807787  HIT:   38631544  MISS:    4176243  iACCESS:          0  iHIT:          0  iMISS:          0  dACCESS:   42514333  dHIT:   38607192  dMISS:    3907141  itACCESS:      94006  itHIT:      13019  itMISS:      80987  dtACCESS:     199448  dtHIT:      11333  dtMISS:     188115
cpu0_L1D LOAD         ACCESS:   19448169  HIT:   17662451  MISS:    1785718  iACCESS:          0  iHIT:          0  iMISS:          0  dACCESS:   19448169  dHIT:   17662451  dMISS:    1785718  itACCESS:          0  itHIT:          0  itMISS:          0  dtACCESS:          0  dtHIT:          0  dtMISS:          0
cpu0_L1D RFO          ACCESS:          0  HIT:          0  MISS:          0  iACCESS:          0  iHIT:          0  iMISS:          0  dACCESS:          0  dHIT:          0  dMISS:          0  itACCESS:          0  itHIT:          0  itMISS:          0  dtACCESS:          0  dtHIT:          0  dtMISS:          0
cpu0_L1D PREFETCH     ACCESS:   12941392  HIT:   11246001  MISS:    1695391  iACCESS:          0  iHIT:          0  iMISS:          0  dACCESS:   12941392  dHIT:   11246001  dMISS:    1695391  itACCESS:          0  itHIT:          0  itMISS:          0  dtACCESS:          0  dtHIT:          0  dtMISS:          0
cpu0_L1D WRITE        ACCESS:   10124772  HIT:    9698740  MISS:     426032  iACCESS:          0  iHIT:          0  iMISS:          0  dACCESS:   10124772  dHIT:    9698740  dMISS:     426032  itACCESS:          0  itHIT:          0  itMISS:          0  dtACCESS:          0  dtHIT:          0  dtMISS:          0
cpu0_L1D TRANSLATION  ACCESS:     293454  HIT:      24352  MISS:     269102  iACCESS:          0  iHIT:          0  iMISS:          0  dACCESS:          0  dHIT:          0  dMISS:          0  itACCESS:      94006  itHIT:      13019  itMISS:      80987  dtACCESS:     199448  dtHIT:      11333  dtMISS:     188115
cpu0_L1D PREFETCH  REQUESTED:   19448169  ISSUED:   17366546  CROSSED:          0  USEFUL:     316255  USELESS:     715338
cpu0_L1D AVERAGE iMISS LATENCY: 0 cycles
cpu0_L1D AVERAGE dMISS LATENCY: 39.9255 cycles
cpu0_L1D AVERAGE itMISS LATENCY: 1.00672 cycles
cpu0_L1D AVERAGE dtMISS LATENCY: 2.74888 cycles
cpu0_L1D PAGE CROSSINGS (TLB HIT):         0 
cpu0_L1D PAGE CROSSINGS (TLB MISS):         0 
cpu0_L1D AVERAGE MISS LATENCY: 43.6811 cycles
cpu0_L2C TOTAL       ACCESS:    7449435  HIT:    1644038  MISS:    5805397  iACCESS:    3467794  iHIT:     846158  iMISS:    2621636  dACCESS:    3719564  dHIT:     639541  dMISS:    3080023  itACCESS:      80987  itHIT:      55858  itMISS:      25129  dtACCESS:     181090  dtHIT:     102481  dtMISS:      78609
cpu0_L2C LOAD         ACCESS:    1746050  HIT:     255261  MISS:    1490789  iACCESS:     784180  iHIT:     133505  iMISS:     650675  dACCESS:     961870  dHIT:     121756  dMISS:     840114  itACCESS:          0  itHIT:          0  itMISS:          0  dtACCESS:          0  dtHIT:          0  dtMISS:          0
cpu0_L2C RFO          ACCESS:     159226  HIT:      40170  MISS:     119056  iACCESS:          0  iHIT:          0  iMISS:          0  dACCESS:     159226  dHIT:      40170  dMISS:     119056  itACCESS:          0  itHIT:          0  itMISS:          0  dtACCESS:          0  dtHIT:          0  dtMISS:          0
cpu0_L2C PREFETCH     ACCESS:    5005511  HIT:    1073483  MISS:    3932028  iACCESS:    2683614  iHIT:     712653  iMISS:    1970961  dACCESS:    2321897  dHIT:     360830  dMISS:    1961067  itACCESS:          0  itHIT:          0  itMISS:          0  dtACCESS:          0  dtHIT:          0  dtMISS:          0
cpu0_L2C WRITE        ACCESS:     276571  HIT:     116785  MISS:     159786  iACCESS:          0  iHIT:          0  iMISS:          0  dACCESS:     276571  dHIT:     116785  dMISS:     159786  itACCESS:          0  itHIT:          0  itMISS:          0  dtACCESS:          0  dtHIT:          0  dtMISS:          0
cpu0_L2C TRANSLATION  ACCESS:     262077  HIT:     158339  MISS:     103738  iACCESS:          0  iHIT:          0  iMISS:          0  dACCESS:          0  dHIT:          0  dMISS:          0  itACCESS:      80987  itHIT:      55858  itMISS:      25129  dtACCESS:     181090  dtHIT:     102481  dtMISS:      78609
cpu0_L2C PREFETCH  REQUESTED:    1562694  ISSUED:    1562684  CROSSED:          0  USEFUL:     444035  USELESS:     440023
cpu0_L2C AVERAGE iMISS LATENCY: 22.1326 cycles
cpu0_L2C AVERAGE dMISS LATENCY: 36.5604 cycles
cpu0_L2C AVERAGE itMISS LATENCY: 0.593982 cycles
cpu0_L2C AVERAGE dtMISS LATENCY: 1.68209 cycles
cpu0_L2C PAGE CROSSINGS (TLB HIT):         0 
cpu0_L2C PAGE CROSSINGS (TLB MISS):         0 
cpu0_L2C AVERAGE MISS LATENCY: 60.969 cycles
LLC TOTAL       ACCESS:    5617597  HIT:    4029571  MISS:    1588026  iACCESS:    2541432  iHIT:    1997503  iMISS:     543929  dACCESS:    2972427  dHIT:    1989810  dMISS:     982617  itACCESS:      25129  itHIT:       8026  itMISS:      17103  dtACCESS:      78609  dtHIT:      34232  dtMISS:      44377
LLC LOAD         ACCESS:    1485232  HIT:    1129297  MISS:     355935  iACCESS:     649342  iHIT:     536802  iMISS:     112540  dACCESS:     835890  dHIT:     592495  dMISS:     243395  itACCESS:          0  itHIT:          0  itMISS:          0  dtACCESS:          0  dtHIT:          0  dtMISS:          0
LLC RFO          ACCESS:     119054  HIT:      67837  MISS:      51217  iACCESS:          0  iHIT:          0  iMISS:          0  dACCESS:     119054  dHIT:      67837  dMISS:      51217  itACCESS:          0  itHIT:          0  itMISS:          0  dtACCESS:          0  dtHIT:          0  dtMISS:          0
LLC PREFETCH     ACCESS:    3749159  HIT:    2640219  MISS:    1108940  iACCESS:    1892090  iHIT:    1460701  iMISS:     431389  dACCESS:    1857069  dHIT:    1179518  dMISS:     677551  itACCESS:          0  itHIT:          0  itMISS:          0  dtACCESS:          0  dtHIT:          0  dtMISS:          0
LLC WRITE        ACCESS:     160414  HIT:     149960  MISS:      10454  iACCESS:          0  iHIT:          0  iMISS:          0  dACCESS:     160414  dHIT:     149960  dMISS:      10454  itACCESS:          0  itHIT:          0  itMISS:          0  dtACCESS:          0  dtHIT:          0  dtMISS:          0
LLC TRANSLATION  ACCESS:     103738  HIT:      42258  MISS:      61480  iACCESS:          0  iHIT:          0  iMISS:          0  dACCESS:          0  dHIT:          0  dMISS:          0  itACCESS:      25129  itHIT:       8026  itMISS:      17103  dtACCESS:      78609  dtHIT:      34232  dtMISS:      44377
LLC PREFETCH  REQUESTED:          0  ISSUED:          0  CROSSED:          0  USEFUL:          0  USELESS:          0
LLC AVERAGE iMISS LATENCY: 49.9414 cycles
LLC AVERAGE dMISS LATENCY: 100.344 cycles
LLC AVERAGE itMISS LATENCY: 1.86071 cycles
LLC AVERAGE dtMISS LATENCY: 5.18246 cycles
LLC PAGE CROSSINGS (TLB HIT):         0 
LLC PAGE CROSSINGS (TLB MISS):         0 
LLC AVERAGE MISS LATENCY: 157.329 cycles

PageTableWalker TOTAL       ACCESS:     117097  
PageTableWalker AVERAGE LATENCY: 4.19096 cycles
PageTableWalker TOTAL LATENCY: 490748 cycles

DRAM Statistics
Channel 0
 RQ ROW_BUFFER_HIT:     469003
  ROW_BUFFER_MISS:    1092483
 AVG DBUS CONGESTED CYCLE:    3.63942
 WQ ROW_BUFFER_HIT:      31920
  ROW_BUFFER_MISS:      25663  FULL:          0

