last_page:0x200000000000000
VMEM_RES_CAP:0x100000
PAGE_SIZE:4096
LOG2_PAGE_SIZE:12
LOG2_PAGE_TABLE_SIZE:9
page_table_levels:5
WARNING: physical memory size is smaller than virtual memory size
FDiP enabled with aggresivity 16

*** ChampSim Multicore Out-of-Order Simulator ***

Warmup Instructions: 50000000
Simulation Instructions: 100000000
Number of CPUs: 1
Small page size: 4096
Large page size: 2097152

CPU 0 Bimodal branch predictor
Basic BTB sets: 1024 ways: 8 indirect buffer size: 4096 RAS size: 64
Instruction page size distrubution: 0
Loading instruction page size distribution from /home/bsc/bsc018186/scratch/itp_asplos25_AE/dump/srv771_ap.pdst
Data page size distrubution: 0
Loading data page size distribution from /home/bsc/bsc018186/scratch/itp_asplos25_AE/dump/srv771_ap.pdst
cpu0_L2C IP-based stride prefetcher
cpu0_L2C is using xPTP/LRU
	TLB_LOWER_STRESS_THRESHOLD:1
	TLB_UPPER_STRESS_THRESHOLD:9
	MIN_EVICTION_POSITION:4
cpu0_L1D next line prefetcher
cpu0_STLB using iTP with max lru@8
cpu0_STLB using iTP with instr@0 and data@2
Init sat counter with 3 bits (max:50).
cpu0_L1I next line prefetcher
Off-chip DRAM Size: 4 GiB Channels: 1 Width: 64-bit Data Rate: 3200 MT/s
Heartbeat CPU 0 instructions: 10000003 cycles: 2500160 heartbeat IPC: 3.99975 cumulative IPC: 3.99975 (Simulation time: 0 hr 0 min 38 sec) 
Heartbeat CPU 0 instructions: 20000003 cycles: 5000160 heartbeat IPC: 4 cumulative IPC: 3.99988 (Simulation time: 0 hr 1 min 18 sec) 
Heartbeat CPU 0 instructions: 30000003 cycles: 7500210 heartbeat IPC: 3.99993 cumulative IPC: 3.99989 (Simulation time: 0 hr 1 min 59 sec) 
Heartbeat CPU 0 instructions: 40000003 cycles: 10000213 heartbeat IPC: 4 cumulative IPC: 3.99992 (Simulation time: 0 hr 2 min 40 sec) 
Heartbeat CPU 0 instructions: 50000003 cycles: 12500282 heartbeat IPC: 3.99989 cumulative IPC: 3.99992 (Simulation time: 0 hr 3 min 21 sec) 
Warmup finished CPU 0 instructions: 50000003 cycles: 12500283 cumulative IPC: 3.99991 (Simulation time: 0 hr 3 min 21 sec) 

Warmup complete CPU 0 instructions: 50000003 cycles: 12500283 (Simulation time: 0 hr 3 min 21 sec) 

Heartbeat CPU 0 instructions: 60000000 cycles: 29266827 heartbeat IPC: 0.596426 cumulative IPC: 0.596426 (Simulation time: 0 hr 4 min 30 sec) 
Heartbeat CPU 0 instructions: 70000004 cycles: 47126538 heartbeat IPC: 0.55992 cumulative IPC: 0.577597 (Simulation time: 0 hr 5 min 40 sec) 
Heartbeat CPU 0 instructions: 80000000 cycles: 63888575 heartbeat IPC: 0.596586 cumulative IPC: 0.583791 (Simulation time: 0 hr 6 min 49 sec) 
Heartbeat CPU 0 instructions: 90000002 cycles: 81158526 heartbeat IPC: 0.579041 cumulative IPC: 0.582596 (Simulation time: 0 hr 8 min 3 sec) 
Heartbeat CPU 0 instructions: 100000002 cycles: 98564535 heartbeat IPC: 0.574515 cumulative IPC: 0.580962 (Simulation time: 0 hr 9 min 18 sec) 
*** Reached end of trace: /gpfs/projects/bsc18/MN4/bsc18/romol/ChampSim/traces/qualcomm_srv/srv771_ap.champsimtrace.xz
Heartbeat CPU 0 instructions: 110000000 cycles: 115434420 heartbeat IPC: 0.592773 cumulative IPC: 0.582897 (Simulation time: 0 hr 10 min 33 sec) 
Heartbeat CPU 0 instructions: 120000000 cycles: 132431550 heartbeat IPC: 0.588335 cumulative IPC: 0.583668 (Simulation time: 0 hr 11 min 43 sec) 
Heartbeat CPU 0 instructions: 130000004 cycles: 149169006 heartbeat IPC: 0.597463 cumulative IPC: 0.585358 (Simulation time: 0 hr 12 min 58 sec) 
Heartbeat CPU 0 instructions: 140000003 cycles: 165947923 heartbeat IPC: 0.595986 cumulative IPC: 0.58652 (Simulation time: 0 hr 14 min 13 sec) 
Heartbeat CPU 0 instructions: 150000002 cycles: 183838445 heartbeat IPC: 0.558956 cumulative IPC: 0.583642 (Simulation time: 0 hr 15 min 26 sec) 
Simulation finished CPU 0 instructions: 100000004 cycles: 171338164 cumulative IPC: 0.583642 (Simulation time: 0 hr 15 min 26 sec) 

Simulation complete CPU 0 instructions: 100000004 cycles: 171338164 (Simulation time: 0 hr 15 min 26 sec) 


ChampSim completed all CPUs

Saving instructions large page distribution to /home/bsc/bsc018186/scratch/itp_asplos25_AE/dump/srv771_ap.pdst...
Saving data large page distribution to /home/bsc/bsc018186/scratch/itp_asplos25_AE/dump/srv771_ap.pdst...
=== Simulation ===
CPU 0 runs /gpfs/projects/bsc18/MN4/bsc18/romol/ChampSim/traces/qualcomm_srv/srv771_ap.champsimtrace.xz

Region of Interest Statistics

CPU 0 cumulative IPC: 0.583642 instructions: 100000004 cycles: 171338164
CPU 0 Branch Prediction Accuracy: 80.1658% MPKI: 35.8759 Average ROB Occupancy at Mispredict: 10.6537
Branch type MPKI
BRANCH_DIRECT_JUMP: 1.33592
BRANCH_INDIRECT: 18.0412
BRANCH_CONDITIONAL: 11.5983
BRANCH_DIRECT_CALL: 2.51543
BRANCH_INDIRECT_CALL: 0.66576
BRANCH_RETURN: 1.7194

Instructions large pages: 0
Instructions small pages: 6153
Large page distribution for instructions: 0%

Data large pages: 0
Data small pages: 5064
Large page distribution for data: 0%

cpu0_L1I TOTAL       ACCESS:   36261200  HIT:   28064559  MISS:    8196641  iACCESS:   36261200  iHIT:   28064559  iMISS:    8196641  dACCESS:          0  dHIT:          0  dMISS:          0  itACCESS:          0  itHIT:          0  itMISS:          0  dtACCESS:          0  dtHIT:          0  dtMISS:          0
cpu0_L1I LOAD         ACCESS:   10604145  HIT:    8352262  MISS:    2251883  iACCESS:   10604145  iHIT:    8352262  iMISS:    2251883  dACCESS:          0  dHIT:          0  dMISS:          0  itACCESS:          0  itHIT:          0  itMISS:          0  dtACCESS:          0  dtHIT:          0  dtMISS:          0
cpu0_L1I RFO          ACCESS:          0  HIT:          0  MISS:          0  iACCESS:          0  iHIT:          0  iMISS:          0  dACCESS:          0  dHIT:          0  dMISS:          0  itACCESS:          0  itHIT:          0  itMISS:          0  dtACCESS:          0  dtHIT:          0  dtMISS:          0
cpu0_L1I PREFETCH     ACCESS:   25657055  HIT:   19712297  MISS:    5944758  iACCESS:   25657055  iHIT:   19712297  iMISS:    5944758  dACCESS:          0  dHIT:          0  dMISS:          0  itACCESS:          0  itHIT:          0  itMISS:          0  dtACCESS:          0  dtHIT:          0  dtMISS:          0
cpu0_L1I WRITE        ACCESS:          0  HIT:          0  MISS:          0  iACCESS:          0  iHIT:          0  iMISS:          0  dACCESS:          0  dHIT:          0  dMISS:          0  itACCESS:          0  itHIT:          0  itMISS:          0  dtACCESS:          0  dtHIT:          0  dtMISS:          0
cpu0_L1I TRANSLATION  ACCESS:          0  HIT:          0  MISS:          0  iACCESS:          0  iHIT:          0  iMISS:          0  dACCESS:          0  dHIT:          0  dMISS:          0  itACCESS:          0  itHIT:          0  itMISS:          0  dtACCESS:          0  dtHIT:          0  dtMISS:          0
cpu0_L1I PREFETCH  REQUESTED:   28128914  ISSUED:   28128548  CROSSED:          0  USEFUL:    2015499  USELESS:     657560
cpu0_L1I AVERAGE iMISS LATENCY: 15.8233 cycles
cpu0_L1I AVERAGE dMISS LATENCY: 0 cycles
cpu0_L1I AVERAGE itMISS LATENCY: 0 cycles
cpu0_L1I AVERAGE dtMISS LATENCY: 0 cycles
cpu0_L1I PAGE CROSSINGS (TLB HIT):         0 
cpu0_L1I PAGE CROSSINGS (TLB MISS):         0 
cpu0_L1I AVERAGE MISS LATENCY: 15.8233 cycles
cpu0_ITLB TOTAL       ACCESS:   30354335  HIT:   28403399  MISS:    1950936  iACCESS:   30354335  iHIT:   28403399  iMISS:    1950936  dACCESS:          0  dHIT:          0  dMISS:          0  itACCESS:          0  itHIT:          0  itMISS:          0  dtACCESS:          0  dtHIT:          0  dtMISS:          0
cpu0_ITLB LOAD         ACCESS:   30354335  HIT:   28403399  MISS:    1950936  iACCESS:   30354335  iHIT:   28403399  iMISS:    1950936  dACCESS:          0  dHIT:          0  dMISS:          0  itACCESS:          0  itHIT:          0  itMISS:          0  dtACCESS:          0  dtHIT:          0  dtMISS:          0
cpu0_ITLB RFO          ACCESS:          0  HIT:          0  MISS:          0  iACCESS:          0  iHIT:          0  iMISS:          0  dACCESS:          0  dHIT:          0  dMISS:          0  itACCESS:          0  itHIT:          0  itMISS:          0  dtACCESS:          0  dtHIT:          0  dtMISS:          0
cpu0_ITLB PREFETCH     ACCESS:          0  HIT:          0  MISS:          0  iACCESS:          0  iHIT:          0  iMISS:          0  dACCESS:          0  dHIT:          0  dMISS:          0  itACCESS:          0  itHIT:          0  itMISS:          0  dtACCESS:          0  dtHIT:          0  dtMISS:          0
cpu0_ITLB WRITE        ACCESS:          0  HIT:          0  MISS:          0  iACCESS:          0  iHIT:          0  iMISS:          0  dACCESS:          0  dHIT:          0  dMISS:          0  itACCESS:          0  itHIT:          0  itMISS:          0  dtACCESS:          0  dtHIT:          0  dtMISS:          0
cpu0_ITLB TRANSLATION  ACCESS:          0  HIT:          0  MISS:          0  iACCESS:          0  iHIT:          0  iMISS:          0  dACCESS:          0  dHIT:          0  dMISS:          0  itACCESS:          0  itHIT:          0  itMISS:          0  dtACCESS:          0  dtHIT:          0  dtMISS:          0
cpu0_ITLB PREFETCH  REQUESTED:          0  ISSUED:          0  CROSSED:          0  USEFUL:     329463  USELESS:      66113
cpu0_ITLB AVERAGE iMISS LATENCY: 3.36641 cycles
cpu0_ITLB AVERAGE dMISS LATENCY: 0 cycles
cpu0_ITLB AVERAGE itMISS LATENCY: 0 cycles
cpu0_ITLB AVERAGE dtMISS LATENCY: 0 cycles
cpu0_ITLB PAGE CROSSINGS (TLB HIT):         0 
cpu0_ITLB PAGE CROSSINGS (TLB MISS):         0 
cpu0_ITLB AVERAGE MISS LATENCY: 3.36641 cycles
cpu0_DTLB TOTAL       ACCESS:   27998759  HIT:   26032888  MISS:    1965871  iACCESS:          0  iHIT:          0  iMISS:          0  dACCESS:   27998759  dHIT:   26032888  dMISS:    1965871  itACCESS:          0  itHIT:          0  itMISS:          0  dtACCESS:          0  dtHIT:          0  dtMISS:          0
cpu0_DTLB LOAD         ACCESS:   27998759  HIT:   26032888  MISS:    1965871  iACCESS:          0  iHIT:          0  iMISS:          0  dACCESS:   27998759  dHIT:   26032888  dMISS:    1965871  itACCESS:          0  itHIT:          0  itMISS:          0  dtACCESS:          0  dtHIT:          0  dtMISS:          0
cpu0_DTLB RFO          ACCESS:          0  HIT:          0  MISS:          0  iACCESS:          0  iHIT:          0  iMISS:          0  dACCESS:          0  dHIT:          0  dMISS:          0  itACCESS:          0  itHIT:          0  itMISS:          0  dtACCESS:          0  dtHIT:          0  dtMISS:          0
cpu0_DTLB PREFETCH     ACCESS:          0  HIT:          0  MISS:          0  iACCESS:          0  iHIT:          0  iMISS:          0  dACCESS:          0  dHIT:          0  dMISS:          0  itACCESS:          0  itHIT:          0  itMISS:          0  dtACCESS:          0  dtHIT:          0  dtMISS:          0
cpu0_DTLB WRITE        ACCESS:          0  HIT:          0  MISS:          0  iACCESS:          0  iHIT:          0  iMISS:          0  dACCESS:          0  dHIT:          0  dMISS:          0  itACCESS:          0  itHIT:          0  itMISS:          0  dtACCESS:          0  dtHIT:          0  dtMISS:          0
cpu0_DTLB TRANSLATION  ACCESS:          0  HIT:          0  MISS:          0  iACCESS:          0  iHIT:          0  iMISS:          0  dACCESS:          0  dHIT:          0  dMISS:          0  itACCESS:          0  itHIT:          0  itMISS:          0  dtACCESS:          0  dtHIT:          0  dtMISS:          0
cpu0_DTLB PREFETCH  REQUESTED:          0  ISSUED:          0  CROSSED:          0  USEFUL:          0  USELESS:          0
cpu0_DTLB AVERAGE iMISS LATENCY: 0 cycles
cpu0_DTLB AVERAGE dMISS LATENCY: 13.5226 cycles
cpu0_DTLB AVERAGE itMISS LATENCY: 0 cycles
cpu0_DTLB AVERAGE dtMISS LATENCY: 0 cycles
cpu0_DTLB PAGE CROSSINGS (TLB HIT):         0 
cpu0_DTLB PAGE CROSSINGS (TLB MISS):         0 
cpu0_DTLB AVERAGE MISS LATENCY: 13.5226 cycles
cpu0_STLB TOTAL       ACCESS:    1618956  HIT:    1410050  MISS:     208906  iACCESS:     395573  iHIT:     366689  iMISS:      28884  dACCESS:    1223383  dHIT:    1043361  dMISS:     180022  itACCESS:          0  itHIT:          0  itMISS:          0  dtACCESS:          0  dtHIT:          0  dtMISS:          0
cpu0_STLB LOAD         ACCESS:    1618956  HIT:    1410050  MISS:     208906  iACCESS:     395573  iHIT:     366689  iMISS:      28884  dACCESS:    1223383  dHIT:    1043361  dMISS:     180022  itACCESS:          0  itHIT:          0  itMISS:          0  dtACCESS:          0  dtHIT:          0  dtMISS:          0
cpu0_STLB RFO          ACCESS:          0  HIT:          0  MISS:          0  iACCESS:          0  iHIT:          0  iMISS:          0  dACCESS:          0  dHIT:          0  dMISS:          0  itACCESS:          0  itHIT:          0  itMISS:          0  dtACCESS:          0  dtHIT:          0  dtMISS:          0
cpu0_STLB PREFETCH     ACCESS:          0  HIT:          0  MISS:          0  iACCESS:          0  iHIT:          0  iMISS:          0  dACCESS:          0  dHIT:          0  dMISS:          0  itACCESS:          0  itHIT:          0  itMISS:          0  dtACCESS:          0  dtHIT:          0  dtMISS:          0
cpu0_STLB WRITE        ACCESS:          0  HIT:          0  MISS:          0  iACCESS:          0  iHIT:          0  iMISS:          0  dACCESS:          0  dHIT:          0  dMISS:          0  itACCESS:          0  itHIT:          0  itMISS:          0  dtACCESS:          0  dtHIT:          0  dtMISS:          0
cpu0_STLB TRANSLATION  ACCESS:          0  HIT:          0  MISS:          0  iACCESS:          0  iHIT:          0  iMISS:          0  dACCESS:          0  dHIT:          0  dMISS:          0  itACCESS:          0  itHIT:          0  itMISS:          0  dtACCESS:          0  dtHIT:          0  dtMISS:          0
cpu0_STLB PREFETCH  REQUESTED:          0  ISSUED:          0  CROSSED:          0  USEFUL:          0  USELESS:          0
cpu0_STLB AVERAGE iMISS LATENCY: 16.6599 cycles
cpu0_STLB AVERAGE dMISS LATENCY: 80.2996 cycles
cpu0_STLB AVERAGE itMISS LATENCY: 0 cycles
cpu0_STLB AVERAGE dtMISS LATENCY: 0 cycles
cpu0_STLB PAGE CROSSINGS (TLB HIT):         0 
cpu0_STLB PAGE CROSSINGS (TLB MISS):         0 
cpu0_STLB AVERAGE MISS LATENCY: 96.9595 cycles
cpu0_L1D TOTAL       ACCESS:   42581883  HIT:   38536153  MISS:    4045730  iACCESS:          0  iHIT:          0  iMISS:          0  dACCESS:   42297859  dHIT:   38519579  dMISS:    3778280  itACCESS:      32686  itHIT:       2860  itMISS:      29826  dtACCESS:     251338  dtHIT:      13714  dtMISS:     237624
cpu0_L1D LOAD         ACCESS:   19363686  HIT:   17649162  MISS:    1714524  iACCESS:          0  iHIT:          0  iMISS:          0  dACCESS:   19363686  dHIT:   17649162  dMISS:    1714524  itACCESS:          0  itHIT:          0  itMISS:          0  dtACCESS:          0  dtHIT:          0  dtMISS:          0
cpu0_L1D RFO          ACCESS:          0  HIT:          0  MISS:          0  iACCESS:          0  iHIT:          0  iMISS:          0  dACCESS:          0  dHIT:          0  dMISS:          0  itACCESS:          0  itHIT:          0  itMISS:          0  dtACCESS:          0  dtHIT:          0  dtMISS:          0
cpu0_L1D PREFETCH     ACCESS:   12801174  HIT:   11188713  MISS:    1612461  iACCESS:          0  iHIT:          0  iMISS:          0  dACCESS:   12801174  dHIT:   11188713  dMISS:    1612461  itACCESS:          0  itHIT:          0  itMISS:          0  dtACCESS:          0  dtHIT:          0  dtMISS:          0
cpu0_L1D WRITE        ACCESS:   10132999  HIT:    9681704  MISS:     451295  iACCESS:          0  iHIT:          0  iMISS:          0  dACCESS:   10132999  dHIT:    9681704  dMISS:     451295  itACCESS:          0  itHIT:          0  itMISS:          0  dtACCESS:          0  dtHIT:          0  dtMISS:          0
cpu0_L1D TRANSLATION  ACCESS:     284024  HIT:      16574  MISS:     267450  iACCESS:          0  iHIT:          0  iMISS:          0  dACCESS:          0  dHIT:          0  dMISS:          0  itACCESS:      32686  itHIT:       2860  itMISS:      29826  dtACCESS:     251338  dtHIT:      13714  dtMISS:     237624
cpu0_L1D PREFETCH  REQUESTED:   19363686  ISSUED:   17304548  CROSSED:          0  USEFUL:     313815  USELESS:     704267
cpu0_L1D AVERAGE iMISS LATENCY: 0 cycles
cpu0_L1D AVERAGE dMISS LATENCY: 34.8371 cycles
cpu0_L1D AVERAGE itMISS LATENCY: 0.787469 cycles
cpu0_L1D AVERAGE dtMISS LATENCY: 3.55708 cycles
cpu0_L1D PAGE CROSSINGS (TLB HIT):         0 
cpu0_L1D PAGE CROSSINGS (TLB MISS):         0 
cpu0_L1D AVERAGE MISS LATENCY: 39.1816 cycles
cpu0_L2C TOTAL       ACCESS:    7324636  HIT:    2505738  MISS:    4818898  iACCESS:    3410998  iHIT:    1404084  iMISS:    2006914  dACCESS:    3654321  dHIT:     941431  dMISS:    2712890  itACCESS:      29826  itHIT:       9208  itMISS:      20618  dtACCESS:     229491  dtHIT:     151015  dtMISS:      78476
cpu0_L2C LOAD         ACCESS:    1728631  HIT:     520285  MISS:    1208346  iACCESS:     777341  iHIT:     294311  iMISS:     483030  dACCESS:     951290  dHIT:     225974  dMISS:     725316  itACCESS:          0  itHIT:          0  itMISS:          0  dtACCESS:          0  dtHIT:          0  dtMISS:          0
cpu0_L2C RFO          ACCESS:     161112  HIT:      30683  MISS:     130429  iACCESS:          0  iHIT:          0  iMISS:          0  dACCESS:     161112  dHIT:      30683  dMISS:     130429  itACCESS:          0  itHIT:          0  itMISS:          0  dtACCESS:          0  dtHIT:          0  dtMISS:          0
cpu0_L2C PREFETCH     ACCESS:    4901319  HIT:    1683415  MISS:    3217904  iACCESS:    2633657  iHIT:    1109773  iMISS:    1523884  dACCESS:    2267662  dHIT:     573642  dMISS:    1694020  itACCESS:          0  itHIT:          0  itMISS:          0  dtACCESS:          0  dtHIT:          0  dtMISS:          0
cpu0_L2C WRITE        ACCESS:     274257  HIT:     111132  MISS:     163125  iACCESS:          0  iHIT:          0  iMISS:          0  dACCESS:     274257  dHIT:     111132  dMISS:     163125  itACCESS:          0  itHIT:          0  itMISS:          0  dtACCESS:          0  dtHIT:          0  dtMISS:          0
cpu0_L2C TRANSLATION  ACCESS:     259317  HIT:     160223  MISS:      99094  iACCESS:          0  iHIT:          0  iMISS:          0  dACCESS:          0  dHIT:          0  dMISS:          0  itACCESS:      29826  itHIT:       9208  itMISS:      20618  dtACCESS:     229491  dtHIT:     151015  dtMISS:      78476
cpu0_L2C PREFETCH  REQUESTED:    1519213  ISSUED:    1519019  CROSSED:          0  USEFUL:     399141  USELESS:     374402
cpu0_L2C AVERAGE iMISS LATENCY: 20.6009 cycles
cpu0_L2C AVERAGE dMISS LATENCY: 35.8846 cycles
cpu0_L2C AVERAGE itMISS LATENCY: 0.600919 cycles
cpu0_L2C AVERAGE dtMISS LATENCY: 2.53943 cycles
cpu0_L2C PAGE CROSSINGS (TLB HIT):         0 
cpu0_L2C PAGE CROSSINGS (TLB MISS):         0 
cpu0_L2C AVERAGE MISS LATENCY: 59.6258 cycles
LLC TOTAL       ACCESS:    4698552  HIT:    3425873  MISS:    1272679  iACCESS:    1940761  iHIT:    1517369  iMISS:     423392  dACCESS:    2658697  dHIT:    1882339  dMISS:     776358  itACCESS:      20618  itHIT:       6334  itMISS:      14284  dtACCESS:      78476  dtHIT:      19831  dtMISS:      58645
LLC LOAD         ACCESS:    1202446  HIT:     923788  MISS:     278658  iACCESS:     482065  iHIT:     395415  iMISS:      86650  dACCESS:     720381  dHIT:     528373  dMISS:     192008  itACCESS:          0  itHIT:          0  itMISS:          0  dtACCESS:          0  dtHIT:          0  dtMISS:          0
LLC RFO          ACCESS:     130421  HIT:      79140  MISS:      51281  iACCESS:          0  iHIT:          0  iMISS:          0  dACCESS:     130421  dHIT:      79140  dMISS:      51281  itACCESS:          0  itHIT:          0  itMISS:          0  dtACCESS:          0  dtHIT:          0  dtMISS:          0
LLC PREFETCH     ACCESS:    3064442  HIT:    2197191  MISS:     867251  iACCESS:    1458696  iHIT:    1121954  iMISS:     336742  dACCESS:    1605746  dHIT:    1075237  dMISS:     530509  itACCESS:          0  itHIT:          0  itMISS:          0  dtACCESS:          0  dtHIT:          0  dtMISS:          0
LLC WRITE        ACCESS:     202149  HIT:     199589  MISS:       2560  iACCESS:          0  iHIT:          0  iMISS:          0  dACCESS:     202149  dHIT:     199589  dMISS:       2560  itACCESS:          0  itHIT:          0  itMISS:          0  dtACCESS:          0  dtHIT:          0  dtMISS:          0
LLC TRANSLATION  ACCESS:      99094  HIT:      26165  MISS:      72929  iACCESS:          0  iHIT:          0  iMISS:          0  dACCESS:          0  dHIT:          0  dMISS:          0  itACCESS:      20618  itHIT:       6334  itMISS:      14284  dtACCESS:      78476  dtHIT:      19831  dtMISS:      58645
LLC PREFETCH  REQUESTED:          0  ISSUED:          0  CROSSED:          0  USEFUL:          0  USELESS:          0
LLC AVERAGE iMISS LATENCY: 48.5143 cycles
LLC AVERAGE dMISS LATENCY: 99.4029 cycles
LLC AVERAGE itMISS LATENCY: 1.95709 cycles
LLC AVERAGE dtMISS LATENCY: 8.40054 cycles
LLC PAGE CROSSINGS (TLB HIT):         0 
LLC PAGE CROSSINGS (TLB MISS):         0 
LLC AVERAGE MISS LATENCY: 158.275 cycles

PageTableWalker TOTAL       ACCESS:      98964  
PageTableWalker AVERAGE LATENCY: 4.20105 cycles
PageTableWalker TOTAL LATENCY: 415752 cycles

DRAM Statistics
Channel 0
 RQ ROW_BUFFER_HIT:     361849
  ROW_BUFFER_MISS:     897025
 AVG DBUS CONGESTED CYCLE:    3.63607
 WQ ROW_BUFFER_HIT:      31361
  ROW_BUFFER_MISS:      31158  FULL:          0

