last_page:0x200000000000000
VMEM_RES_CAP:0x100000
PAGE_SIZE:4096
LOG2_PAGE_SIZE:12
LOG2_PAGE_TABLE_SIZE:9
page_table_levels:5
WARNING: physical memory size is smaller than virtual memory size
FDiP enabled with aggresivity 16

*** ChampSim Multicore Out-of-Order Simulator ***

Warmup Instructions: 50000000
Simulation Instructions: 100000000
Number of CPUs: 1
Small page size: 4096
Large page size: 2097152

CPU 0 Bimodal branch predictor
Basic BTB sets: 1024 ways: 8 indirect buffer size: 4096 RAS size: 64
Instruction page size distrubution: 0
Loading instruction page size distribution from /home/bsc/bsc018186/scratch/itp_asplos25_AE/dump/srv771_ap.pdst
Data page size distrubution: 0
Loading data page size distribution from /home/bsc/bsc018186/scratch/itp_asplos25_AE/dump/srv771_ap.pdst
cpu0_L2C IP-based stride prefetcher
cpu0_L2C is using PTP replacement policy:
	TLB_STRESS_THRESHOLD:0
	PTE_EVICTION_RATIO:0
cpu0_L1D next line prefetcher
CHiRPing...
cpu0_L1I next line prefetcher
Off-chip DRAM Size: 4 GiB Channels: 1 Width: 64-bit Data Rate: 3200 MT/s
Heartbeat CPU 0 instructions: 10000000 cycles: 2500153 heartbeat IPC: 3.99976 cumulative IPC: 3.99976 (Simulation time: 0 hr 0 min 38 sec) 
Heartbeat CPU 0 instructions: 20000003 cycles: 5000189 heartbeat IPC: 3.99995 cumulative IPC: 3.99985 (Simulation time: 0 hr 1 min 19 sec) 
Heartbeat CPU 0 instructions: 30000001 cycles: 7500265 heartbeat IPC: 3.99988 cumulative IPC: 3.99986 (Simulation time: 0 hr 2 min 0 sec) 
Heartbeat CPU 0 instructions: 40000002 cycles: 10000291 heartbeat IPC: 3.99996 cumulative IPC: 3.99989 (Simulation time: 0 hr 2 min 42 sec) 
Heartbeat CPU 0 instructions: 50000001 cycles: 12500382 heartbeat IPC: 3.99986 cumulative IPC: 3.99988 (Simulation time: 0 hr 3 min 23 sec) 
Warmup finished CPU 0 instructions: 50000001 cycles: 12500383 cumulative IPC: 3.99988 (Simulation time: 0 hr 3 min 23 sec) 

Warmup complete CPU 0 instructions: 50000001 cycles: 12500383 (Simulation time: 0 hr 3 min 23 sec) 

Heartbeat CPU 0 instructions: 60000000 cycles: 30289975 heartbeat IPC: 0.562127 cumulative IPC: 0.562127 (Simulation time: 0 hr 4 min 34 sec) 
Heartbeat CPU 0 instructions: 70000004 cycles: 49246883 heartbeat IPC: 0.527513 cumulative IPC: 0.54427 (Simulation time: 0 hr 5 min 46 sec) 
Heartbeat CPU 0 instructions: 80000000 cycles: 67361231 heartbeat IPC: 0.552049 cumulative IPC: 0.546839 (Simulation time: 0 hr 6 min 56 sec) 
Heartbeat CPU 0 instructions: 90000002 cycles: 86528726 heartbeat IPC: 0.521717 cumulative IPC: 0.540334 (Simulation time: 0 hr 8 min 8 sec) 
Heartbeat CPU 0 instructions: 100000002 cycles: 105943175 heartbeat IPC: 0.515081 cumulative IPC: 0.535087 (Simulation time: 0 hr 9 min 19 sec) 
*** Reached end of trace: /gpfs/projects/bsc18/MN4/bsc18/romol/ChampSim/traces/qualcomm_srv/srv771_ap.champsimtrace.xz
Heartbeat CPU 0 instructions: 110000000 cycles: 125037580 heartbeat IPC: 0.523714 cumulative IPC: 0.533158 (Simulation time: 0 hr 10 min 32 sec) 
Heartbeat CPU 0 instructions: 120000000 cycles: 144795838 heartbeat IPC: 0.506118 cumulative IPC: 0.529119 (Simulation time: 0 hr 11 min 46 sec) 
Heartbeat CPU 0 instructions: 130000001 cycles: 164258513 heartbeat IPC: 0.513805 cumulative IPC: 0.527155 (Simulation time: 0 hr 12 min 59 sec) 
Heartbeat CPU 0 instructions: 140000003 cycles: 184143143 heartbeat IPC: 0.502902 cumulative IPC: 0.524345 (Simulation time: 0 hr 14 min 13 sec) 
Heartbeat CPU 0 instructions: 150000002 cycles: 205368775 heartbeat IPC: 0.471129 cumulative IPC: 0.518489 (Simulation time: 0 hr 15 min 27 sec) 
Simulation finished CPU 0 instructions: 100000001 cycles: 192868393 cumulative IPC: 0.518489 (Simulation time: 0 hr 15 min 27 sec) 

Simulation complete CPU 0 instructions: 100000001 cycles: 192868393 (Simulation time: 0 hr 15 min 27 sec) 


ChampSim completed all CPUs

Saving instructions large page distribution to /home/bsc/bsc018186/scratch/itp_asplos25_AE/dump/srv771_ap.pdst...
Saving data large page distribution to /home/bsc/bsc018186/scratch/itp_asplos25_AE/dump/srv771_ap.pdst...
=== Simulation ===
CPU 0 runs /gpfs/projects/bsc18/MN4/bsc18/romol/ChampSim/traces/qualcomm_srv/srv771_ap.champsimtrace.xz

Region of Interest Statistics

CPU 0 cumulative IPC: 0.518489 instructions: 100000001 cycles: 192868393
CPU 0 Branch Prediction Accuracy: 80.1658% MPKI: 35.8759 Average ROB Occupancy at Mispredict: 10.6385
Branch type MPKI
BRANCH_DIRECT_JUMP: 1.33592
BRANCH_INDIRECT: 18.0412
BRANCH_CONDITIONAL: 11.5983
BRANCH_DIRECT_CALL: 2.51543
BRANCH_INDIRECT_CALL: 0.66576
BRANCH_RETURN: 1.7194

Instructions large pages: 0
Instructions small pages: 6153
Large page distribution for instructions: 0%

Data large pages: 0
Data small pages: 5064
Large page distribution for data: 0%

cpu0_L1I TOTAL       ACCESS:   36279486  HIT:   28011942  MISS:    8267544  iACCESS:   36279486  iHIT:   28011942  iMISS:    8267544  dACCESS:          0  dHIT:          0  dMISS:          0  itACCESS:          0  itHIT:          0  itMISS:          0  dtACCESS:          0  dtHIT:          0  dtMISS:          0
cpu0_L1I LOAD         ACCESS:   10606979  HIT:    8336980  MISS:    2269999  iACCESS:   10606979  iHIT:    8336980  iMISS:    2269999  dACCESS:          0  dHIT:          0  dMISS:          0  itACCESS:          0  itHIT:          0  itMISS:          0  dtACCESS:          0  dtHIT:          0  dtMISS:          0
cpu0_L1I RFO          ACCESS:          0  HIT:          0  MISS:          0  iACCESS:          0  iHIT:          0  iMISS:          0  dACCESS:          0  dHIT:          0  dMISS:          0  itACCESS:          0  itHIT:          0  itMISS:          0  dtACCESS:          0  dtHIT:          0  dtMISS:          0
cpu0_L1I PREFETCH     ACCESS:   25672507  HIT:   19674962  MISS:    5997545  iACCESS:   25672507  iHIT:   19674962  iMISS:    5997545  dACCESS:          0  dHIT:          0  dMISS:          0  itACCESS:          0  itHIT:          0  itMISS:          0  dtACCESS:          0  dtHIT:          0  dtMISS:          0
cpu0_L1I WRITE        ACCESS:          0  HIT:          0  MISS:          0  iACCESS:          0  iHIT:          0  iMISS:          0  dACCESS:          0  dHIT:          0  dMISS:          0  itACCESS:          0  itHIT:          0  itMISS:          0  dtACCESS:          0  dtHIT:          0  dtMISS:          0
cpu0_L1I TRANSLATION  ACCESS:          0  HIT:          0  MISS:          0  iACCESS:          0  iHIT:          0  iMISS:          0  dACCESS:          0  dHIT:          0  dMISS:          0  itACCESS:          0  itHIT:          0  itMISS:          0  dtACCESS:          0  dtHIT:          0  dtMISS:          0
cpu0_L1I PREFETCH  REQUESTED:   28131435  ISSUED:   28130878  CROSSED:          0  USEFUL:    2015286  USELESS:     657677
cpu0_L1I AVERAGE iMISS LATENCY: 19.0194 cycles
cpu0_L1I AVERAGE dMISS LATENCY: 0 cycles
cpu0_L1I AVERAGE itMISS LATENCY: 0 cycles
cpu0_L1I AVERAGE dtMISS LATENCY: 0 cycles
cpu0_L1I PAGE CROSSINGS (TLB HIT):         0 
cpu0_L1I PAGE CROSSINGS (TLB MISS):         0 
cpu0_L1I AVERAGE MISS LATENCY: 19.0194 cycles
cpu0_ITLB TOTAL       ACCESS:   30355560  HIT:   28400573  MISS:    1954987  iACCESS:   30355560  iHIT:   28400573  iMISS:    1954987  dACCESS:          0  dHIT:          0  dMISS:          0  itACCESS:          0  itHIT:          0  itMISS:          0  dtACCESS:          0  dtHIT:          0  dtMISS:          0
cpu0_ITLB LOAD         ACCESS:   30355560  HIT:   28400573  MISS:    1954987  iACCESS:   30355560  iHIT:   28400573  iMISS:    1954987  dACCESS:          0  dHIT:          0  dMISS:          0  itACCESS:          0  itHIT:          0  itMISS:          0  dtACCESS:          0  dtHIT:          0  dtMISS:          0
cpu0_ITLB RFO          ACCESS:          0  HIT:          0  MISS:          0  iACCESS:          0  iHIT:          0  iMISS:          0  dACCESS:          0  dHIT:          0  dMISS:          0  itACCESS:          0  itHIT:          0  itMISS:          0  dtACCESS:          0  dtHIT:          0  dtMISS:          0
cpu0_ITLB PREFETCH     ACCESS:          0  HIT:          0  MISS:          0  iACCESS:          0  iHIT:          0  iMISS:          0  dACCESS:          0  dHIT:          0  dMISS:          0  itACCESS:          0  itHIT:          0  itMISS:          0  dtACCESS:          0  dtHIT:          0  dtMISS:          0
cpu0_ITLB WRITE        ACCESS:          0  HIT:          0  MISS:          0  iACCESS:          0  iHIT:          0  iMISS:          0  dACCESS:          0  dHIT:          0  dMISS:          0  itACCESS:          0  itHIT:          0  itMISS:          0  dtACCESS:          0  dtHIT:          0  dtMISS:          0
cpu0_ITLB TRANSLATION  ACCESS:          0  HIT:          0  MISS:          0  iACCESS:          0  iHIT:          0  iMISS:          0  dACCESS:          0  dHIT:          0  dMISS:          0  itACCESS:          0  itHIT:          0  itMISS:          0  dtACCESS:          0  dtHIT:          0  dtMISS:          0
cpu0_ITLB PREFETCH  REQUESTED:          0  ISSUED:          0  CROSSED:          0  USEFUL:     329199  USELESS:      66339
cpu0_ITLB AVERAGE iMISS LATENCY: 5.54671 cycles
cpu0_ITLB AVERAGE dMISS LATENCY: 0 cycles
cpu0_ITLB AVERAGE itMISS LATENCY: 0 cycles
cpu0_ITLB AVERAGE dtMISS LATENCY: 0 cycles
cpu0_ITLB PAGE CROSSINGS (TLB HIT):         0 
cpu0_ITLB PAGE CROSSINGS (TLB MISS):         0 
cpu0_ITLB AVERAGE MISS LATENCY: 5.54671 cycles
cpu0_DTLB TOTAL       ACCESS:   27993047  HIT:   26033914  MISS:    1959133  iACCESS:          0  iHIT:          0  iMISS:          0  dACCESS:   27993047  dHIT:   26033914  dMISS:    1959133  itACCESS:          0  itHIT:          0  itMISS:          0  dtACCESS:          0  dtHIT:          0  dtMISS:          0
cpu0_DTLB LOAD         ACCESS:   27993047  HIT:   26033914  MISS:    1959133  iACCESS:          0  iHIT:          0  iMISS:          0  dACCESS:   27993047  dHIT:   26033914  dMISS:    1959133  itACCESS:          0  itHIT:          0  itMISS:          0  dtACCESS:          0  dtHIT:          0  dtMISS:          0
cpu0_DTLB RFO          ACCESS:          0  HIT:          0  MISS:          0  iACCESS:          0  iHIT:          0  iMISS:          0  dACCESS:          0  dHIT:          0  dMISS:          0  itACCESS:          0  itHIT:          0  itMISS:          0  dtACCESS:          0  dtHIT:          0  dtMISS:          0
cpu0_DTLB PREFETCH     ACCESS:          0  HIT:          0  MISS:          0  iACCESS:          0  iHIT:          0  iMISS:          0  dACCESS:          0  dHIT:          0  dMISS:          0  itACCESS:          0  itHIT:          0  itMISS:          0  dtACCESS:          0  dtHIT:          0  dtMISS:          0
cpu0_DTLB WRITE        ACCESS:          0  HIT:          0  MISS:          0  iACCESS:          0  iHIT:          0  iMISS:          0  dACCESS:          0  dHIT:          0  dMISS:          0  itACCESS:          0  itHIT:          0  itMISS:          0  dtACCESS:          0  dtHIT:          0  dtMISS:          0
cpu0_DTLB TRANSLATION  ACCESS:          0  HIT:          0  MISS:          0  iACCESS:          0  iHIT:          0  iMISS:          0  dACCESS:          0  dHIT:          0  dMISS:          0  itACCESS:          0  itHIT:          0  itMISS:          0  dtACCESS:          0  dtHIT:          0  dtMISS:          0
cpu0_DTLB PREFETCH  REQUESTED:          0  ISSUED:          0  CROSSED:          0  USEFUL:          0  USELESS:          0
cpu0_DTLB AVERAGE iMISS LATENCY: 0 cycles
cpu0_DTLB AVERAGE dMISS LATENCY: 14.52 cycles
cpu0_DTLB AVERAGE itMISS LATENCY: 0 cycles
cpu0_DTLB AVERAGE dtMISS LATENCY: 0 cycles
cpu0_DTLB PAGE CROSSINGS (TLB HIT):         0 
cpu0_DTLB PAGE CROSSINGS (TLB MISS):         0 
cpu0_DTLB AVERAGE MISS LATENCY: 14.52 cycles
cpu0_STLB TOTAL       ACCESS:    1619105  HIT:    1393779  MISS:     225326  iACCESS:     395548  iHIT:     308986  iMISS:      86562  dACCESS:    1223557  dHIT:    1084793  dMISS:     138764  itACCESS:          0  itHIT:          0  itMISS:          0  dtACCESS:          0  dtHIT:          0  dtMISS:          0
cpu0_STLB LOAD         ACCESS:    1619105  HIT:    1393779  MISS:     225326  iACCESS:     395548  iHIT:     308986  iMISS:      86562  dACCESS:    1223557  dHIT:    1084793  dMISS:     138764  itACCESS:          0  itHIT:          0  itMISS:          0  dtACCESS:          0  dtHIT:          0  dtMISS:          0
cpu0_STLB RFO          ACCESS:          0  HIT:          0  MISS:          0  iACCESS:          0  iHIT:          0  iMISS:          0  dACCESS:          0  dHIT:          0  dMISS:          0  itACCESS:          0  itHIT:          0  itMISS:          0  dtACCESS:          0  dtHIT:          0  dtMISS:          0
cpu0_STLB PREFETCH     ACCESS:          0  HIT:          0  MISS:          0  iACCESS:          0  iHIT:          0  iMISS:          0  dACCESS:          0  dHIT:          0  dMISS:          0  itACCESS:          0  itHIT:          0  itMISS:          0  dtACCESS:          0  dtHIT:          0  dtMISS:          0
cpu0_STLB WRITE        ACCESS:          0  HIT:          0  MISS:          0  iACCESS:          0  iHIT:          0  iMISS:          0  dACCESS:          0  dHIT:          0  dMISS:          0  itACCESS:          0  itHIT:          0  itMISS:          0  dtACCESS:          0  dtHIT:          0  dtMISS:          0
cpu0_STLB TRANSLATION  ACCESS:          0  HIT:          0  MISS:          0  iACCESS:          0  iHIT:          0  iMISS:          0  dACCESS:          0  dHIT:          0  dMISS:          0  itACCESS:          0  itHIT:          0  itMISS:          0  dtACCESS:          0  dtHIT:          0  dtMISS:          0
cpu0_STLB PREFETCH  REQUESTED:          0  ISSUED:          0  CROSSED:          0  USEFUL:          0  USELESS:          0
cpu0_STLB AVERAGE iMISS LATENCY: 34.1365 cycles
cpu0_STLB AVERAGE dMISS LATENCY: 82.8625 cycles
cpu0_STLB AVERAGE itMISS LATENCY: 0 cycles
cpu0_STLB AVERAGE dtMISS LATENCY: 0 cycles
cpu0_STLB PAGE CROSSINGS (TLB HIT):         0 
cpu0_STLB PAGE CROSSINGS (TLB MISS):         0 
cpu0_STLB AVERAGE MISS LATENCY: 116.999 cycles
cpu0_L1D TOTAL       ACCESS:   42950073  HIT:   38529658  MISS:    4420415  iACCESS:          0  iHIT:          0  iMISS:          0  dACCESS:   42664739  dHIT:   38506122  dMISS:    4158617  itACCESS:      92245  itHIT:      12713  itMISS:      79532  dtACCESS:     193089  dtHIT:      10823  dtMISS:     182266
cpu0_L1D LOAD         ACCESS:   19542254  HIT:   17641084  MISS:    1901170  iACCESS:          0  iHIT:          0  iMISS:          0  dACCESS:   19542254  dHIT:   17641084  dMISS:    1901170  itACCESS:          0  itHIT:          0  itMISS:          0  dtACCESS:          0  dtHIT:          0  dtMISS:          0
cpu0_L1D RFO          ACCESS:          0  HIT:          0  MISS:          0  iACCESS:          0  iHIT:          0  iMISS:          0  dACCESS:          0  dHIT:          0  dMISS:          0  itACCESS:          0  itHIT:          0  itMISS:          0  dtACCESS:          0  dtHIT:          0  dtMISS:          0
cpu0_L1D PREFETCH     ACCESS:   12990232  HIT:   11185493  MISS:    1804739  iACCESS:          0  iHIT:          0  iMISS:          0  dACCESS:   12990232  dHIT:   11185493  dMISS:    1804739  itACCESS:          0  itHIT:          0  itMISS:          0  dtACCESS:          0  dtHIT:          0  dtMISS:          0
cpu0_L1D WRITE        ACCESS:   10132253  HIT:    9679545  MISS:     452708  iACCESS:          0  iHIT:          0  iMISS:          0  dACCESS:   10132253  dHIT:    9679545  dMISS:     452708  itACCESS:          0  itHIT:          0  itMISS:          0  dtACCESS:          0  dtHIT:          0  dtMISS:          0
cpu0_L1D TRANSLATION  ACCESS:     285334  HIT:      23536  MISS:     261798  iACCESS:          0  iHIT:          0  iMISS:          0  dACCESS:          0  dHIT:          0  dMISS:          0  itACCESS:      92245  itHIT:      12713  itMISS:      79532  dtACCESS:     193089  dtHIT:      10823  dtMISS:     182266
cpu0_L1D PREFETCH  REQUESTED:   19542254  ISSUED:   17318486  CROSSED:          0  USEFUL:     313704  USELESS:     703992
cpu0_L1D AVERAGE iMISS LATENCY: 0 cycles
cpu0_L1D AVERAGE dMISS LATENCY: 38.3561 cycles
cpu0_L1D AVERAGE itMISS LATENCY: 1.5714 cycles
cpu0_L1D AVERAGE dtMISS LATENCY: 3.7822 cycles
cpu0_L1D PAGE CROSSINGS (TLB HIT):         0 
cpu0_L1D PAGE CROSSINGS (TLB MISS):         0 
cpu0_L1D AVERAGE MISS LATENCY: 43.7097 cycles
cpu0_L2C TOTAL       ACCESS:    7329506  HIT:    2288871  MISS:    5040635  iACCESS:    3412807  iHIT:    1274772  iMISS:    2138035  dACCESS:    3662311  dHIT:     893889  dMISS:    2768422  itACCESS:      79532  itHIT:      38190  itMISS:      41342  dtACCESS:     174856  dtHIT:      82020  dtMISS:      92836
cpu0_L2C LOAD         ACCESS:    1728670  HIT:     459315  MISS:    1269355  iACCESS:     777754  iHIT:     267704  iMISS:     510050  dACCESS:     950916  dHIT:     191611  dMISS:     759305  itACCESS:          0  itHIT:          0  itMISS:          0  dtACCESS:          0  dtHIT:          0  dtMISS:          0
cpu0_L2C RFO          ACCESS:     161153  HIT:      30438  MISS:     130715  iACCESS:          0  iHIT:          0  iMISS:          0  dACCESS:     161153  dHIT:      30438  dMISS:     130715  itACCESS:          0  itHIT:          0  itMISS:          0  dtACCESS:          0  dtHIT:          0  dtMISS:          0
cpu0_L2C PREFETCH     ACCESS:    4911391  HIT:    1537312  MISS:    3374079  iACCESS:    2635053  iHIT:    1007068  iMISS:    1627985  dACCESS:    2276338  dHIT:     530244  dMISS:    1746094  itACCESS:          0  itHIT:          0  itMISS:          0  dtACCESS:          0  dtHIT:          0  dtMISS:          0
cpu0_L2C WRITE        ACCESS:     273904  HIT:     141596  MISS:     132308  iACCESS:          0  iHIT:          0  iMISS:          0  dACCESS:     273904  dHIT:     141596  dMISS:     132308  itACCESS:          0  itHIT:          0  itMISS:          0  dtACCESS:          0  dtHIT:          0  dtMISS:          0
cpu0_L2C TRANSLATION  ACCESS:     254388  HIT:     120210  MISS:     134178  iACCESS:          0  iHIT:          0  iMISS:          0  dACCESS:          0  dHIT:          0  dMISS:          0  itACCESS:      79532  itHIT:      38190  itMISS:      41342  dtACCESS:     174856  dtHIT:      82020  dtMISS:      92836
cpu0_L2C PREFETCH  REQUESTED:    1527284  ISSUED:    1527284  CROSSED:          0  USEFUL:     416358  USELESS:     379612
cpu0_L2C AVERAGE iMISS LATENCY: 25.2086 cycles
cpu0_L2C AVERAGE dMISS LATENCY: 42.5345 cycles
cpu0_L2C AVERAGE itMISS LATENCY: 1.22743 cycles
cpu0_L2C AVERAGE dtMISS LATENCY: 2.98478 cycles
cpu0_L2C PAGE CROSSINGS (TLB HIT):         0 
cpu0_L2C PAGE CROSSINGS (TLB MISS):         0 
cpu0_L2C AVERAGE MISS LATENCY: 71.9552 cycles
LLC TOTAL       ACCESS:    4932565  HIT:    3239524  MISS:    1693041  iACCESS:    2060548  iHIT:    1470211  iMISS:     590337  dACCESS:    2737839  dHIT:    1736783  dMISS:    1001056  itACCESS:      41342  itHIT:      10714  itMISS:      30628  dtACCESS:      92836  dtHIT:      21816  dtMISS:      71020
LLC LOAD         ACCESS:    1263095  HIT:     883535  MISS:     379560  iACCESS:     508752  iHIT:     382946  iMISS:     125806  dACCESS:     754343  dHIT:     500589  dMISS:     253754  itACCESS:          0  itHIT:          0  itMISS:          0  dtACCESS:          0  dtHIT:          0  dtMISS:          0
LLC RFO          ACCESS:     130698  HIT:      72752  MISS:      57946  iACCESS:          0  iHIT:          0  iMISS:          0  dACCESS:     130698  dHIT:      72752  dMISS:      57946  itACCESS:          0  itHIT:          0  itMISS:          0  dtACCESS:          0  dtHIT:          0  dtMISS:          0
LLC PREFETCH     ACCESS:    3197596  HIT:    2046956  MISS:    1150640  iACCESS:    1551796  iHIT:    1087265  iMISS:     464531  dACCESS:    1645800  dHIT:     959691  dMISS:     686109  itACCESS:          0  itHIT:          0  itMISS:          0  dtACCESS:          0  dtHIT:          0  dtMISS:          0
LLC WRITE        ACCESS:     206998  HIT:     203751  MISS:       3247  iACCESS:          0  iHIT:          0  iMISS:          0  dACCESS:     206998  dHIT:     203751  dMISS:       3247  itACCESS:          0  itHIT:          0  itMISS:          0  dtACCESS:          0  dtHIT:          0  dtMISS:          0
LLC TRANSLATION  ACCESS:     134178  HIT:      32530  MISS:     101648  iACCESS:          0  iHIT:          0  iMISS:          0  dACCESS:          0  dHIT:          0  dMISS:          0  itACCESS:      41342  itHIT:      10714  itMISS:      30628  dtACCESS:      92836  dtHIT:      21816  dtMISS:      71020
LLC PREFETCH  REQUESTED:          0  ISSUED:          0  CROSSED:          0  USEFUL:          0  USELESS:          0
LLC AVERAGE iMISS LATENCY: 51.4473 cycles
LLC AVERAGE dMISS LATENCY: 98.7674 cycles
LLC AVERAGE itMISS LATENCY: 3.17378 cycles
LLC AVERAGE dtMISS LATENCY: 7.80737 cycles
LLC PAGE CROSSINGS (TLB HIT):         0 
LLC PAGE CROSSINGS (TLB MISS):         0 
LLC AVERAGE MISS LATENCY: 161.196 cycles

PageTableWalker TOTAL       ACCESS:     114841  
PageTableWalker AVERAGE LATENCY: 3.83769 cycles
PageTableWalker TOTAL LATENCY: 440724 cycles

DRAM Statistics
Channel 0
 RQ ROW_BUFFER_HIT:     473008
  ROW_BUFFER_MISS:    1198791
 AVG DBUS CONGESTED CYCLE:    3.64021
 WQ ROW_BUFFER_HIT:      38288
  ROW_BUFFER_MISS:      33327  FULL:          0

