last_page:0x200000000000000
VMEM_RES_CAP:0x100000
PAGE_SIZE:4096
LOG2_PAGE_SIZE:12
LOG2_PAGE_TABLE_SIZE:9
page_table_levels:5
WARNING: physical memory size is smaller than virtual memory size
FDiP enabled with aggresivity 16

*** ChampSim Multicore Out-of-Order Simulator ***

Warmup Instructions: 50000000
Simulation Instructions: 100000000
Number of CPUs: 1
Small page size: 4096
Large page size: 2097152

CPU 0 Bimodal branch predictor
Basic BTB sets: 1024 ways: 8 indirect buffer size: 4096 RAS size: 64
Instruction page size distrubution: 0
Loading instruction page size distribution from /home/bsc/bsc018186/scratch/itp_asplos25_AE/dump/srv73_ap.pdst
Data page size distrubution: 0
Loading data page size distribution from /home/bsc/bsc018186/scratch/itp_asplos25_AE/dump/srv73_ap.pdst
cpu0_L2C IP-based stride prefetcher
cpu0_L1D next line prefetcher
cpu0_STLB using iTP with max lru@8
cpu0_STLB using iTP with instr@0 and data@2
Init sat counter with 3 bits (max:50).
cpu0_L1I next line prefetcher
Off-chip DRAM Size: 4 GiB Channels: 1 Width: 64-bit Data Rate: 3200 MT/s
Heartbeat CPU 0 instructions: 10000003 cycles: 2500138 heartbeat IPC: 3.99979 cumulative IPC: 3.99979 (Simulation time: 0 hr 0 min 38 sec) 
Heartbeat CPU 0 instructions: 20000000 cycles: 5000179 heartbeat IPC: 3.99994 cumulative IPC: 3.99986 (Simulation time: 0 hr 1 min 18 sec) 
Heartbeat CPU 0 instructions: 30000002 cycles: 7507764 heartbeat IPC: 3.98791 cumulative IPC: 3.99587 (Simulation time: 0 hr 1 min 58 sec) 
Heartbeat CPU 0 instructions: 40000001 cycles: 10014917 heartbeat IPC: 3.98859 cumulative IPC: 3.99405 (Simulation time: 0 hr 2 min 34 sec) 
Heartbeat CPU 0 instructions: 50000000 cycles: 12517447 heartbeat IPC: 3.99596 cumulative IPC: 3.99443 (Simulation time: 0 hr 3 min 14 sec) 
Warmup finished CPU 0 instructions: 50000000 cycles: 12517448 cumulative IPC: 3.99443 (Simulation time: 0 hr 3 min 14 sec) 

Warmup complete CPU 0 instructions: 50000000 cycles: 12517448 (Simulation time: 0 hr 3 min 14 sec) 

Heartbeat CPU 0 instructions: 60000000 cycles: 34006634 heartbeat IPC: 0.465351 cumulative IPC: 0.465351 (Simulation time: 0 hr 4 min 27 sec) 
Heartbeat CPU 0 instructions: 70000002 cycles: 42348729 heartbeat IPC: 1.19874 cumulative IPC: 0.670438 (Simulation time: 0 hr 5 min 22 sec) 
Heartbeat CPU 0 instructions: 80000004 cycles: 65164821 heartbeat IPC: 0.438288 cumulative IPC: 0.56983 (Simulation time: 0 hr 6 min 36 sec) 
Heartbeat CPU 0 instructions: 90000001 cycles: 87680322 heartbeat IPC: 0.444139 cumulative IPC: 0.532178 (Simulation time: 0 hr 7 min 49 sec) 
Heartbeat CPU 0 instructions: 100000000 cycles: 110499861 heartbeat IPC: 0.438221 cumulative IPC: 0.510296 (Simulation time: 0 hr 9 min 3 sec) 
*** Reached end of trace: /gpfs/projects/bsc18/MN4/bsc18/romol/ChampSim/traces/qualcomm_srv/srv73_ap.champsimtrace.xz
Heartbeat CPU 0 instructions: 110000003 cycles: 132484491 heartbeat IPC: 0.454864 cumulative IPC: 0.500138 (Simulation time: 0 hr 10 min 15 sec) 
Heartbeat CPU 0 instructions: 120000002 cycles: 155393989 heartbeat IPC: 0.436501 cumulative IPC: 0.489934 (Simulation time: 0 hr 11 min 29 sec) 
Heartbeat CPU 0 instructions: 130000000 cycles: 171453037 heartbeat IPC: 0.622702 cumulative IPC: 0.503349 (Simulation time: 0 hr 12 min 34 sec) 
Heartbeat CPU 0 instructions: 140000000 cycles: 180641359 heartbeat IPC: 1.08834 cumulative IPC: 0.53532 (Simulation time: 0 hr 13 min 25 sec) 
Heartbeat CPU 0 instructions: 150000004 cycles: 201743263 heartbeat IPC: 0.473892 cumulative IPC: 0.52847 (Simulation time: 0 hr 14 min 35 sec) 
Simulation finished CPU 0 instructions: 100000004 cycles: 189225816 cumulative IPC: 0.52847 (Simulation time: 0 hr 14 min 35 sec) 

Simulation complete CPU 0 instructions: 100000004 cycles: 189225816 (Simulation time: 0 hr 14 min 35 sec) 


ChampSim completed all CPUs

Saving instructions large page distribution to /home/bsc/bsc018186/scratch/itp_asplos25_AE/dump/srv73_ap.pdst...
Saving data large page distribution to /home/bsc/bsc018186/scratch/itp_asplos25_AE/dump/srv73_ap.pdst...
=== Simulation ===
CPU 0 runs /gpfs/projects/bsc18/MN4/bsc18/romol/ChampSim/traces/qualcomm_srv/srv73_ap.champsimtrace.xz

Region of Interest Statistics

CPU 0 cumulative IPC: 0.52847 instructions: 100000004 cycles: 189225816
CPU 0 Branch Prediction Accuracy: 82.7501% MPKI: 33.8556 Average ROB Occupancy at Mispredict: 11.3316
Branch type MPKI
BRANCH_DIRECT_JUMP: 1.01076
BRANCH_INDIRECT: 16.971
BRANCH_CONDITIONAL: 11.2404
BRANCH_DIRECT_CALL: 1.82837
BRANCH_INDIRECT_CALL: 1.46524
BRANCH_RETURN: 1.33985

Instructions large pages: 0
Instructions small pages: 1671
Large page distribution for instructions: 0%

Data large pages: 0
Data small pages: 5667
Large page distribution for data: 0%

cpu0_L1I TOTAL       ACCESS:   32354552  HIT:   26021239  MISS:    6333313  iACCESS:   32354552  iHIT:   26021239  iMISS:    6333313  dACCESS:          0  dHIT:          0  dMISS:          0  itACCESS:          0  itHIT:          0  itMISS:          0  dtACCESS:          0  dtHIT:          0  dtMISS:          0
cpu0_L1I LOAD         ACCESS:    7938226  HIT:    6165354  MISS:    1772872  iACCESS:    7938226  iHIT:    6165354  iMISS:    1772872  dACCESS:          0  dHIT:          0  dMISS:          0  itACCESS:          0  itHIT:          0  itMISS:          0  dtACCESS:          0  dtHIT:          0  dtMISS:          0
cpu0_L1I RFO          ACCESS:          0  HIT:          0  MISS:          0  iACCESS:          0  iHIT:          0  iMISS:          0  dACCESS:          0  dHIT:          0  dMISS:          0  itACCESS:          0  itHIT:          0  itMISS:          0  dtACCESS:          0  dtHIT:          0  dtMISS:          0
cpu0_L1I PREFETCH     ACCESS:   24416326  HIT:   19855885  MISS:    4560441  iACCESS:   24416326  iHIT:   19855885  iMISS:    4560441  dACCESS:          0  dHIT:          0  dMISS:          0  itACCESS:          0  itHIT:          0  itMISS:          0  dtACCESS:          0  dtHIT:          0  dtMISS:          0
cpu0_L1I WRITE        ACCESS:          0  HIT:          0  MISS:          0  iACCESS:          0  iHIT:          0  iMISS:          0  dACCESS:          0  dHIT:          0  dMISS:          0  itACCESS:          0  itHIT:          0  itMISS:          0  dtACCESS:          0  dtHIT:          0  dtMISS:          0
cpu0_L1I TRANSLATION  ACCESS:          0  HIT:          0  MISS:          0  iACCESS:          0  iHIT:          0  iMISS:          0  dACCESS:          0  dHIT:          0  dMISS:          0  itACCESS:          0  itHIT:          0  itMISS:          0  dtACCESS:          0  dtHIT:          0  dtMISS:          0
cpu0_L1I PREFETCH  REQUESTED:   26163747  ISSUED:   26163742  CROSSED:          0  USEFUL:    1550641  USELESS:     567960
cpu0_L1I AVERAGE iMISS LATENCY: 20.8966 cycles
cpu0_L1I AVERAGE dMISS LATENCY: 0 cycles
cpu0_L1I AVERAGE itMISS LATENCY: 0 cycles
cpu0_L1I AVERAGE dtMISS LATENCY: 0 cycles
cpu0_L1I PAGE CROSSINGS (TLB HIT):         0 
cpu0_L1I PAGE CROSSINGS (TLB MISS):         0 
cpu0_L1I AVERAGE MISS LATENCY: 20.8966 cycles
cpu0_ITLB TOTAL       ACCESS:   27710148  HIT:   26127275  MISS:    1582873  iACCESS:   27710148  iHIT:   26127275  iMISS:    1582873  dACCESS:          0  dHIT:          0  dMISS:          0  itACCESS:          0  itHIT:          0  itMISS:          0  dtACCESS:          0  dtHIT:          0  dtMISS:          0
cpu0_ITLB LOAD         ACCESS:   27710148  HIT:   26127275  MISS:    1582873  iACCESS:   27710148  iHIT:   26127275  iMISS:    1582873  dACCESS:          0  dHIT:          0  dMISS:          0  itACCESS:          0  itHIT:          0  itMISS:          0  dtACCESS:          0  dtHIT:          0  dtMISS:          0
cpu0_ITLB RFO          ACCESS:          0  HIT:          0  MISS:          0  iACCESS:          0  iHIT:          0  iMISS:          0  dACCESS:          0  dHIT:          0  dMISS:          0  itACCESS:          0  itHIT:          0  itMISS:          0  dtACCESS:          0  dtHIT:          0  dtMISS:          0
cpu0_ITLB PREFETCH     ACCESS:          0  HIT:          0  MISS:          0  iACCESS:          0  iHIT:          0  iMISS:          0  dACCESS:          0  dHIT:          0  dMISS:          0  itACCESS:          0  itHIT:          0  itMISS:          0  dtACCESS:          0  dtHIT:          0  dtMISS:          0
cpu0_ITLB WRITE        ACCESS:          0  HIT:          0  MISS:          0  iACCESS:          0  iHIT:          0  iMISS:          0  dACCESS:          0  dHIT:          0  dMISS:          0  itACCESS:          0  itHIT:          0  itMISS:          0  dtACCESS:          0  dtHIT:          0  dtMISS:          0
cpu0_ITLB TRANSLATION  ACCESS:          0  HIT:          0  MISS:          0  iACCESS:          0  iHIT:          0  iMISS:          0  dACCESS:          0  dHIT:          0  dMISS:          0  itACCESS:          0  itHIT:          0  itMISS:          0  dtACCESS:          0  dtHIT:          0  dtMISS:          0
cpu0_ITLB PREFETCH  REQUESTED:          0  ISSUED:          0  CROSSED:          0  USEFUL:     267948  USELESS:      53406
cpu0_ITLB AVERAGE iMISS LATENCY: 4.63813 cycles
cpu0_ITLB AVERAGE dMISS LATENCY: 0 cycles
cpu0_ITLB AVERAGE itMISS LATENCY: 0 cycles
cpu0_ITLB AVERAGE dtMISS LATENCY: 0 cycles
cpu0_ITLB PAGE CROSSINGS (TLB HIT):         0 
cpu0_ITLB PAGE CROSSINGS (TLB MISS):         0 
cpu0_ITLB AVERAGE MISS LATENCY: 4.63813 cycles
cpu0_DTLB TOTAL       ACCESS:   30935899  HIT:   27224285  MISS:    3711614  iACCESS:          0  iHIT:          0  iMISS:          0  dACCESS:   30935899  dHIT:   27224285  dMISS:    3711614  itACCESS:          0  itHIT:          0  itMISS:          0  dtACCESS:          0  dtHIT:          0  dtMISS:          0
cpu0_DTLB LOAD         ACCESS:   30935899  HIT:   27224285  MISS:    3711614  iACCESS:          0  iHIT:          0  iMISS:          0  dACCESS:   30935899  dHIT:   27224285  dMISS:    3711614  itACCESS:          0  itHIT:          0  itMISS:          0  dtACCESS:          0  dtHIT:          0  dtMISS:          0
cpu0_DTLB RFO          ACCESS:          0  HIT:          0  MISS:          0  iACCESS:          0  iHIT:          0  iMISS:          0  dACCESS:          0  dHIT:          0  dMISS:          0  itACCESS:          0  itHIT:          0  itMISS:          0  dtACCESS:          0  dtHIT:          0  dtMISS:          0
cpu0_DTLB PREFETCH     ACCESS:          0  HIT:          0  MISS:          0  iACCESS:          0  iHIT:          0  iMISS:          0  dACCESS:          0  dHIT:          0  dMISS:          0  itACCESS:          0  itHIT:          0  itMISS:          0  dtACCESS:          0  dtHIT:          0  dtMISS:          0
cpu0_DTLB WRITE        ACCESS:          0  HIT:          0  MISS:          0  iACCESS:          0  iHIT:          0  iMISS:          0  dACCESS:          0  dHIT:          0  dMISS:          0  itACCESS:          0  itHIT:          0  itMISS:          0  dtACCESS:          0  dtHIT:          0  dtMISS:          0
cpu0_DTLB TRANSLATION  ACCESS:          0  HIT:          0  MISS:          0  iACCESS:          0  iHIT:          0  iMISS:          0  dACCESS:          0  dHIT:          0  dMISS:          0  itACCESS:          0  itHIT:          0  itMISS:          0  dtACCESS:          0  dtHIT:          0  dtMISS:          0
cpu0_DTLB PREFETCH  REQUESTED:          0  ISSUED:          0  CROSSED:          0  USEFUL:          0  USELESS:          0
cpu0_DTLB AVERAGE iMISS LATENCY: 0 cycles
cpu0_DTLB AVERAGE dMISS LATENCY: 12.9294 cycles
cpu0_DTLB AVERAGE itMISS LATENCY: 0 cycles
cpu0_DTLB AVERAGE dtMISS LATENCY: 0 cycles
cpu0_DTLB PAGE CROSSINGS (TLB HIT):         0 
cpu0_DTLB PAGE CROSSINGS (TLB MISS):         0 
cpu0_DTLB AVERAGE MISS LATENCY: 12.9294 cycles
cpu0_STLB TOTAL       ACCESS:    2270971  HIT:    2090948  MISS:     180023  iACCESS:     321358  iHIT:     291985  iMISS:      29373  dACCESS:    1949613  dHIT:    1798963  dMISS:     150650  itACCESS:          0  itHIT:          0  itMISS:          0  dtACCESS:          0  dtHIT:          0  dtMISS:          0
cpu0_STLB LOAD         ACCESS:    2270971  HIT:    2090948  MISS:     180023  iACCESS:     321358  iHIT:     291985  iMISS:      29373  dACCESS:    1949613  dHIT:    1798963  dMISS:     150650  itACCESS:          0  itHIT:          0  itMISS:          0  dtACCESS:          0  dtHIT:          0  dtMISS:          0
cpu0_STLB RFO          ACCESS:          0  HIT:          0  MISS:          0  iACCESS:          0  iHIT:          0  iMISS:          0  dACCESS:          0  dHIT:          0  dMISS:          0  itACCESS:          0  itHIT:          0  itMISS:          0  dtACCESS:          0  dtHIT:          0  dtMISS:          0
cpu0_STLB PREFETCH     ACCESS:          0  HIT:          0  MISS:          0  iACCESS:          0  iHIT:          0  iMISS:          0  dACCESS:          0  dHIT:          0  dMISS:          0  itACCESS:          0  itHIT:          0  itMISS:          0  dtACCESS:          0  dtHIT:          0  dtMISS:          0
cpu0_STLB WRITE        ACCESS:          0  HIT:          0  MISS:          0  iACCESS:          0  iHIT:          0  iMISS:          0  dACCESS:          0  dHIT:          0  dMISS:          0  itACCESS:          0  itHIT:          0  itMISS:          0  dtACCESS:          0  dtHIT:          0  dtMISS:          0
cpu0_STLB TRANSLATION  ACCESS:          0  HIT:          0  MISS:          0  iACCESS:          0  iHIT:          0  iMISS:          0  dACCESS:          0  dHIT:          0  dMISS:          0  itACCESS:          0  itHIT:          0  itMISS:          0  dtACCESS:          0  dtHIT:          0  dtMISS:          0
cpu0_STLB PREFETCH  REQUESTED:          0  ISSUED:          0  CROSSED:          0  USEFUL:          0  USELESS:          0
cpu0_STLB AVERAGE iMISS LATENCY: 26.7941 cycles
cpu0_STLB AVERAGE dMISS LATENCY: 178.81 cycles
cpu0_STLB AVERAGE itMISS LATENCY: 0 cycles
cpu0_STLB AVERAGE dtMISS LATENCY: 0 cycles
cpu0_STLB PAGE CROSSINGS (TLB HIT):         0 
cpu0_STLB PAGE CROSSINGS (TLB MISS):         0 
cpu0_STLB AVERAGE MISS LATENCY: 205.604 cycles
cpu0_L1D TOTAL       ACCESS:   47319289  HIT:   40982236  MISS:    6337053  iACCESS:          0  iHIT:          0  iMISS:          0  dACCESS:   47058248  dHIT:   40965834  dMISS:    6092414  itACCESS:      38656  itHIT:       3300  itMISS:      35356  dtACCESS:     222385  dtHIT:      13102  dtMISS:     209283
cpu0_L1D LOAD         ACCESS:   22946156  HIT:   19530478  MISS:    3415678  iACCESS:          0  iHIT:          0  iMISS:          0  dACCESS:   22946156  dHIT:   19530478  dMISS:    3415678  itACCESS:          0  itHIT:          0  itMISS:          0  dtACCESS:          0  dtHIT:          0  dtMISS:          0
cpu0_L1D RFO          ACCESS:          0  HIT:          0  MISS:          0  iACCESS:          0  iHIT:          0  iMISS:          0  dACCESS:          0  dHIT:          0  dMISS:          0  itACCESS:          0  itHIT:          0  itMISS:          0  dtACCESS:          0  dtHIT:          0  dtMISS:          0
cpu0_L1D PREFETCH     ACCESS:   14218161  HIT:   12184662  MISS:    2033499  iACCESS:          0  iHIT:          0  iMISS:          0  dACCESS:   14218161  dHIT:   12184662  dMISS:    2033499  itACCESS:          0  itHIT:          0  itMISS:          0  dtACCESS:          0  dtHIT:          0  dtMISS:          0
cpu0_L1D WRITE        ACCESS:    9893931  HIT:    9250694  MISS:     643237  iACCESS:          0  iHIT:          0  iMISS:          0  dACCESS:    9893931  dHIT:    9250694  dMISS:     643237  itACCESS:          0  itHIT:          0  itMISS:          0  dtACCESS:          0  dtHIT:          0  dtMISS:          0
cpu0_L1D TRANSLATION  ACCESS:     261041  HIT:      16402  MISS:     244639  iACCESS:          0  iHIT:          0  iMISS:          0  dACCESS:          0  dHIT:          0  dMISS:          0  itACCESS:      38656  itHIT:       3300  itMISS:      35356  dtACCESS:     222385  dtHIT:      13102  dtMISS:     209283
cpu0_L1D PREFETCH  REQUESTED:   22946156  ISSUED:   18936483  CROSSED:          0  USEFUL:     289246  USELESS:     802395
cpu0_L1D AVERAGE iMISS LATENCY: 0 cycles
cpu0_L1D AVERAGE dMISS LATENCY: 29.0023 cycles
cpu0_L1D AVERAGE itMISS LATENCY: 0.710433 cycles
cpu0_L1D AVERAGE dtMISS LATENCY: 4.72953 cycles
cpu0_L1D PAGE CROSSINGS (TLB HIT):         0 
cpu0_L1D PAGE CROSSINGS (TLB MISS):         0 
cpu0_L1D AVERAGE MISS LATENCY: 34.4423 cycles
cpu0_L2C TOTAL       ACCESS:    7739663  HIT:    4966983  MISS:    2772680  iACCESS:    2735885  iHIT:    1736547  iMISS:     999338  dACCESS:    4787660  dHIT:    3196695  dMISS:    1590965  itACCESS:      29978  itHIT:       5152  itMISS:      24826  dtACCESS:     186140  dtHIT:      28589  dtMISS:     157551
cpu0_L2C LOAD         ACCESS:    2961196  HIT:    2314923  MISS:     646273  iACCESS:     642651  iHIT:     439101  iMISS:     203550  dACCESS:    2318545  dHIT:    1875822  dMISS:     442723  itACCESS:          0  itHIT:          0  itMISS:          0  dtACCESS:          0  dtHIT:          0  dtMISS:          0
cpu0_L2C RFO          ACCESS:     185695  HIT:      83981  MISS:     101714  iACCESS:          0  iHIT:          0  iMISS:          0  dACCESS:     185695  dHIT:      83981  dMISS:     101714  itACCESS:          0  itHIT:          0  itMISS:          0  dtACCESS:          0  dtHIT:          0  dtMISS:          0
cpu0_L2C PREFETCH     ACCESS:    4119670  HIT:    2278280  MISS:    1841390  iACCESS:    2093234  iHIT:    1297446  iMISS:     795788  dACCESS:    2026436  dHIT:     980834  dMISS:    1045602  itACCESS:          0  itHIT:          0  itMISS:          0  dtACCESS:          0  dtHIT:          0  dtMISS:          0
cpu0_L2C WRITE        ACCESS:     256984  HIT:     256058  MISS:        926  iACCESS:          0  iHIT:          0  iMISS:          0  dACCESS:     256984  dHIT:     256058  dMISS:        926  itACCESS:          0  itHIT:          0  itMISS:          0  dtACCESS:          0  dtHIT:          0  dtMISS:          0
cpu0_L2C TRANSLATION  ACCESS:     216118  HIT:      33741  MISS:     182377  iACCESS:          0  iHIT:          0  iMISS:          0  dACCESS:          0  dHIT:          0  dMISS:          0  itACCESS:      29978  itHIT:       5152  itMISS:      24826  dtACCESS:     186140  dtHIT:      28589  dtMISS:     157551
cpu0_L2C PREFETCH  REQUESTED:    1107793  ISSUED:    1107783  CROSSED:          0  USEFUL:     242232  USELESS:     222870
cpu0_L2C AVERAGE iMISS LATENCY: 39.2902 cycles
cpu0_L2C AVERAGE dMISS LATENCY: 72.4866 cycles
cpu0_L2C AVERAGE itMISS LATENCY: 1.51712 cycles
cpu0_L2C AVERAGE dtMISS LATENCY: 10.1444 cycles
cpu0_L2C PAGE CROSSINGS (TLB HIT):         0 
cpu0_L2C PAGE CROSSINGS (TLB MISS):         0 
cpu0_L2C AVERAGE MISS LATENCY: 123.439 cycles
LLC TOTAL       ACCESS:    2762519  HIT:     990557  MISS:    1771962  iACCESS:     942012  iHIT:     343497  iMISS:     598515  dACCESS:    1638130  dHIT:     615461  dMISS:    1022669  itACCESS:      24826  itHIT:       3557  itMISS:      21269  dtACCESS:     157551  dtHIT:      28042  dtMISS:     129509
LLC LOAD         ACCESS:     641747  HIT:     240204  MISS:     401543  iACCESS:     202654  iHIT:      78755  iMISS:     123899  dACCESS:     439093  dHIT:     161449  dMISS:     277644  itACCESS:          0  itHIT:          0  itMISS:          0  dtACCESS:          0  dtHIT:          0  dtMISS:          0
LLC RFO          ACCESS:     101706  HIT:      29336  MISS:      72370  iACCESS:          0  iHIT:          0  iMISS:          0  dACCESS:     101706  dHIT:      29336  dMISS:      72370  itACCESS:          0  itHIT:          0  itMISS:          0  dtACCESS:          0  dtHIT:          0  dtMISS:          0
LLC PREFETCH     ACCESS:    1708177  HIT:     567791  MISS:    1140386  iACCESS:     739358  iHIT:     264742  iMISS:     474616  dACCESS:     968819  dHIT:     303049  dMISS:     665770  itACCESS:          0  itHIT:          0  itMISS:          0  dtACCESS:          0  dtHIT:          0  dtMISS:          0
LLC WRITE        ACCESS:     128512  HIT:     121627  MISS:       6885  iACCESS:          0  iHIT:          0  iMISS:          0  dACCESS:     128512  dHIT:     121627  dMISS:       6885  itACCESS:          0  itHIT:          0  itMISS:          0  dtACCESS:          0  dtHIT:          0  dtMISS:          0
LLC TRANSLATION  ACCESS:     182377  HIT:      31599  MISS:     150778  iACCESS:          0  iHIT:          0  iMISS:          0  dACCESS:          0  dHIT:          0  dMISS:          0  itACCESS:      24826  itHIT:       3557  itMISS:      21269  dtACCESS:     157551  dtHIT:      28042  dtMISS:     129509
LLC PREFETCH  REQUESTED:          0  ISSUED:          0  CROSSED:          0  USEFUL:          0  USELESS:          0
LLC AVERAGE iMISS LATENCY: 51.0393 cycles
LLC AVERAGE dMISS LATENCY: 97.5394 cycles
LLC AVERAGE itMISS LATENCY: 2.09678 cycles
LLC AVERAGE dtMISS LATENCY: 14.1206 cycles
LLC PAGE CROSSINGS (TLB HIT):         0 
LLC PAGE CROSSINGS (TLB MISS):         0 
LLC AVERAGE MISS LATENCY: 164.796 cycles

PageTableWalker TOTAL       ACCESS:      83968  
PageTableWalker AVERAGE LATENCY: 5.55831 cycles
PageTableWalker TOTAL LATENCY: 466720 cycles

DRAM Statistics
Channel 0
 RQ ROW_BUFFER_HIT:     486309
  ROW_BUFFER_MISS:    1265720
 AVG DBUS CONGESTED CYCLE:    3.65274
 WQ ROW_BUFFER_HIT:      36640
  ROW_BUFFER_MISS:      31708  FULL:          0

