last_page:0x200000000000000
VMEM_RES_CAP:0x100000
PAGE_SIZE:4096
LOG2_PAGE_SIZE:12
LOG2_PAGE_TABLE_SIZE:9
page_table_levels:5
WARNING: physical memory size is smaller than virtual memory size
FDiP enabled with aggresivity 16

*** ChampSim Multicore Out-of-Order Simulator ***

Warmup Instructions: 50000000
Simulation Instructions: 100000000
Number of CPUs: 1
Small page size: 4096
Large page size: 2097152

CPU 0 Bimodal branch predictor
Basic BTB sets: 1024 ways: 8 indirect buffer size: 4096 RAS size: 64
Instruction page size distrubution: 0
Loading instruction page size distribution from /home/bsc/bsc018186/scratch/itp_asplos25_AE/dump/srv743_ap.pdst
Data page size distrubution: 0
Loading data page size distribution from /home/bsc/bsc018186/scratch/itp_asplos25_AE/dump/srv743_ap.pdst
cpu0_L2C IP-based stride prefetcher
cpu0_L2C is using PTP replacement policy:
	TLB_STRESS_THRESHOLD:0
	PTE_EVICTION_RATIO:0
cpu0_L1D next line prefetcher
cpu0_STLB using iTP with max lru@8
cpu0_STLB using iTP with instr@0 and data@2
Init sat counter with 3 bits (max:50).
cpu0_L1I next line prefetcher
Off-chip DRAM Size: 4 GiB Channels: 1 Width: 64-bit Data Rate: 3200 MT/s
Heartbeat CPU 0 instructions: 10000003 cycles: 2500507 heartbeat IPC: 3.9992 cumulative IPC: 3.9992 (Simulation time: 0 hr 0 min 41 sec) 
Heartbeat CPU 0 instructions: 20000001 cycles: 5000726 heartbeat IPC: 3.99965 cumulative IPC: 3.99942 (Simulation time: 0 hr 1 min 20 sec) 
Heartbeat CPU 0 instructions: 30000002 cycles: 7500933 heartbeat IPC: 3.99967 cumulative IPC: 3.99951 (Simulation time: 0 hr 2 min 3 sec) 
Heartbeat CPU 0 instructions: 40000003 cycles: 10001731 heartbeat IPC: 3.99873 cumulative IPC: 3.99931 (Simulation time: 0 hr 2 min 47 sec) 
Heartbeat CPU 0 instructions: 50000000 cycles: 12502194 heartbeat IPC: 3.99926 cumulative IPC: 3.9993 (Simulation time: 0 hr 3 min 31 sec) 
Warmup finished CPU 0 instructions: 50000000 cycles: 12502195 cumulative IPC: 3.9993 (Simulation time: 0 hr 3 min 31 sec) 

Warmup complete CPU 0 instructions: 50000000 cycles: 12502195 (Simulation time: 0 hr 3 min 31 sec) 

Heartbeat CPU 0 instructions: 60000000 cycles: 24806822 heartbeat IPC: 0.812703 cumulative IPC: 0.812703 (Simulation time: 0 hr 4 min 35 sec) 
Heartbeat CPU 0 instructions: 70000004 cycles: 34206299 heartbeat IPC: 1.06389 cumulative IPC: 0.921485 (Simulation time: 0 hr 5 min 36 sec) 
Heartbeat CPU 0 instructions: 80000003 cycles: 50035822 heartbeat IPC: 0.631731 cumulative IPC: 0.799284 (Simulation time: 0 hr 6 min 41 sec) 
Heartbeat CPU 0 instructions: 90000002 cycles: 66122659 heartbeat IPC: 0.621627 cumulative IPC: 0.745984 (Simulation time: 0 hr 7 min 45 sec) 
Heartbeat CPU 0 instructions: 100000003 cycles: 82221572 heartbeat IPC: 0.621161 cumulative IPC: 0.717161 (Simulation time: 0 hr 8 min 51 sec) 
*** Reached end of trace: /gpfs/projects/bsc18/MN4/bsc18/romol/ChampSim/traces/qualcomm_srv/srv743_ap.champsimtrace.xz
Heartbeat CPU 0 instructions: 110000002 cycles: 97505558 heartbeat IPC: 0.65428 cumulative IPC: 0.705855 (Simulation time: 0 hr 9 min 54 sec) 
Heartbeat CPU 0 instructions: 120000002 cycles: 113318044 heartbeat IPC: 0.632412 cumulative IPC: 0.694336 (Simulation time: 0 hr 11 min 0 sec) 
Heartbeat CPU 0 instructions: 130000001 cycles: 129336950 heartbeat IPC: 0.624263 cumulative IPC: 0.684728 (Simulation time: 0 hr 12 min 4 sec) 
Heartbeat CPU 0 instructions: 140000001 cycles: 145181610 heartbeat IPC: 0.631128 cumulative IPC: 0.678327 (Simulation time: 0 hr 13 min 9 sec) 
Heartbeat CPU 0 instructions: 150000001 cycles: 160824212 heartbeat IPC: 0.63928 cumulative IPC: 0.674209 (Simulation time: 0 hr 14 min 14 sec) 
Simulation finished CPU 0 instructions: 100000001 cycles: 148322018 cumulative IPC: 0.674209 (Simulation time: 0 hr 14 min 14 sec) 

Simulation complete CPU 0 instructions: 100000001 cycles: 148322018 (Simulation time: 0 hr 14 min 14 sec) 


ChampSim completed all CPUs

Saving instructions large page distribution to /home/bsc/bsc018186/scratch/itp_asplos25_AE/dump/srv743_ap.pdst...
Saving data large page distribution to /home/bsc/bsc018186/scratch/itp_asplos25_AE/dump/srv743_ap.pdst...
=== Simulation ===
CPU 0 runs /gpfs/projects/bsc18/MN4/bsc18/romol/ChampSim/traces/qualcomm_srv/srv743_ap.champsimtrace.xz

Region of Interest Statistics

CPU 0 cumulative IPC: 0.674209 instructions: 100000001 cycles: 148322018
CPU 0 Branch Prediction Accuracy: 84.7044% MPKI: 29.3751 Average ROB Occupancy at Mispredict: 12.9604
Branch type MPKI
BRANCH_DIRECT_JUMP: 1.07633
BRANCH_INDIRECT: 14.8497
BRANCH_CONDITIONAL: 9.39464
BRANCH_DIRECT_CALL: 2.03056
BRANCH_INDIRECT_CALL: 0.58903
BRANCH_RETURN: 1.43487

Instructions large pages: 0
Instructions small pages: 1170
Large page distribution for instructions: 0%

Data large pages: 0
Data small pages: 10061
Large page distribution for data: 0%

cpu0_L1I TOTAL       ACCESS:   34525751  HIT:   27048384  MISS:    7477367  iACCESS:   34525751  iHIT:   27048384  iMISS:    7477367  dACCESS:          0  dHIT:          0  dMISS:          0  itACCESS:          0  itHIT:          0  itMISS:          0  dtACCESS:          0  dtHIT:          0  dtMISS:          0
cpu0_L1I LOAD         ACCESS:    9270312  HIT:    7193547  MISS:    2076765  iACCESS:    9270312  iHIT:    7193547  iMISS:    2076765  dACCESS:          0  dHIT:          0  dMISS:          0  itACCESS:          0  itHIT:          0  itMISS:          0  dtACCESS:          0  dtHIT:          0  dtMISS:          0
cpu0_L1I RFO          ACCESS:          0  HIT:          0  MISS:          0  iACCESS:          0  iHIT:          0  iMISS:          0  dACCESS:          0  dHIT:          0  dMISS:          0  itACCESS:          0  itHIT:          0  itMISS:          0  dtACCESS:          0  dtHIT:          0  dtMISS:          0
cpu0_L1I PREFETCH     ACCESS:   25255439  HIT:   19854837  MISS:    5400602  iACCESS:   25255439  iHIT:   19854837  iMISS:    5400602  dACCESS:          0  dHIT:          0  dMISS:          0  itACCESS:          0  itHIT:          0  itMISS:          0  dtACCESS:          0  dtHIT:          0  dtMISS:          0
cpu0_L1I WRITE        ACCESS:          0  HIT:          0  MISS:          0  iACCESS:          0  iHIT:          0  iMISS:          0  dACCESS:          0  dHIT:          0  dMISS:          0  itACCESS:          0  itHIT:          0  itMISS:          0  dtACCESS:          0  dtHIT:          0  dtMISS:          0
cpu0_L1I TRANSLATION  ACCESS:          0  HIT:          0  MISS:          0  iACCESS:          0  iHIT:          0  iMISS:          0  dACCESS:          0  dHIT:          0  dMISS:          0  itACCESS:          0  itHIT:          0  itMISS:          0  dtACCESS:          0  dtHIT:          0  dtMISS:          0
cpu0_L1I PREFETCH  REQUESTED:   27274082  ISSUED:   27272316  CROSSED:          0  USEFUL:    1726169  USELESS:     575745
cpu0_L1I AVERAGE iMISS LATENCY: 16.1515 cycles
cpu0_L1I AVERAGE dMISS LATENCY: 0 cycles
cpu0_L1I AVERAGE itMISS LATENCY: 0 cycles
cpu0_L1I AVERAGE dtMISS LATENCY: 0 cycles
cpu0_L1I PAGE CROSSINGS (TLB HIT):         0 
cpu0_L1I PAGE CROSSINGS (TLB MISS):         0 
cpu0_L1I AVERAGE MISS LATENCY: 16.1515 cycles
cpu0_ITLB TOTAL       ACCESS:   28783716  HIT:   27038728  MISS:    1744988  iACCESS:   28783716  iHIT:   27038728  iMISS:    1744988  dACCESS:          0  dHIT:          0  dMISS:          0  itACCESS:          0  itHIT:          0  itMISS:          0  dtACCESS:          0  dtHIT:          0  dtMISS:          0
cpu0_ITLB LOAD         ACCESS:   28783716  HIT:   27038728  MISS:    1744988  iACCESS:   28783716  iHIT:   27038728  iMISS:    1744988  dACCESS:          0  dHIT:          0  dMISS:          0  itACCESS:          0  itHIT:          0  itMISS:          0  dtACCESS:          0  dtHIT:          0  dtMISS:          0
cpu0_ITLB RFO          ACCESS:          0  HIT:          0  MISS:          0  iACCESS:          0  iHIT:          0  iMISS:          0  dACCESS:          0  dHIT:          0  dMISS:          0  itACCESS:          0  itHIT:          0  itMISS:          0  dtACCESS:          0  dtHIT:          0  dtMISS:          0
cpu0_ITLB PREFETCH     ACCESS:          0  HIT:          0  MISS:          0  iACCESS:          0  iHIT:          0  iMISS:          0  dACCESS:          0  dHIT:          0  dMISS:          0  itACCESS:          0  itHIT:          0  itMISS:          0  dtACCESS:          0  dtHIT:          0  dtMISS:          0
cpu0_ITLB WRITE        ACCESS:          0  HIT:          0  MISS:          0  iACCESS:          0  iHIT:          0  iMISS:          0  dACCESS:          0  dHIT:          0  dMISS:          0  itACCESS:          0  itHIT:          0  itMISS:          0  dtACCESS:          0  dtHIT:          0  dtMISS:          0
cpu0_ITLB TRANSLATION  ACCESS:          0  HIT:          0  MISS:          0  iACCESS:          0  iHIT:          0  iMISS:          0  dACCESS:          0  dHIT:          0  dMISS:          0  itACCESS:          0  itHIT:          0  itMISS:          0  dtACCESS:          0  dtHIT:          0  dtMISS:          0
cpu0_ITLB PREFETCH  REQUESTED:          0  ISSUED:          0  CROSSED:          0  USEFUL:     294819  USELESS:      58772
cpu0_ITLB AVERAGE iMISS LATENCY: 2.31443 cycles
cpu0_ITLB AVERAGE dMISS LATENCY: 0 cycles
cpu0_ITLB AVERAGE itMISS LATENCY: 0 cycles
cpu0_ITLB AVERAGE dtMISS LATENCY: 0 cycles
cpu0_ITLB PAGE CROSSINGS (TLB HIT):         0 
cpu0_ITLB PAGE CROSSINGS (TLB MISS):         0 
cpu0_ITLB AVERAGE MISS LATENCY: 2.31443 cycles
cpu0_DTLB TOTAL       ACCESS:   29552193  HIT:   25430639  MISS:    4121554  iACCESS:          0  iHIT:          0  iMISS:          0  dACCESS:   29552193  dHIT:   25430639  dMISS:    4121554  itACCESS:          0  itHIT:          0  itMISS:          0  dtACCESS:          0  dtHIT:          0  dtMISS:          0
cpu0_DTLB LOAD         ACCESS:   29552193  HIT:   25430639  MISS:    4121554  iACCESS:          0  iHIT:          0  iMISS:          0  dACCESS:   29552193  dHIT:   25430639  dMISS:    4121554  itACCESS:          0  itHIT:          0  itMISS:          0  dtACCESS:          0  dtHIT:          0  dtMISS:          0
cpu0_DTLB RFO          ACCESS:          0  HIT:          0  MISS:          0  iACCESS:          0  iHIT:          0  iMISS:          0  dACCESS:          0  dHIT:          0  dMISS:          0  itACCESS:          0  itHIT:          0  itMISS:          0  dtACCESS:          0  dtHIT:          0  dtMISS:          0
cpu0_DTLB PREFETCH     ACCESS:          0  HIT:          0  MISS:          0  iACCESS:          0  iHIT:          0  iMISS:          0  dACCESS:          0  dHIT:          0  dMISS:          0  itACCESS:          0  itHIT:          0  itMISS:          0  dtACCESS:          0  dtHIT:          0  dtMISS:          0
cpu0_DTLB WRITE        ACCESS:          0  HIT:          0  MISS:          0  iACCESS:          0  iHIT:          0  iMISS:          0  dACCESS:          0  dHIT:          0  dMISS:          0  itACCESS:          0  itHIT:          0  itMISS:          0  dtACCESS:          0  dtHIT:          0  dtMISS:          0
cpu0_DTLB TRANSLATION  ACCESS:          0  HIT:          0  MISS:          0  iACCESS:          0  iHIT:          0  iMISS:          0  dACCESS:          0  dHIT:          0  dMISS:          0  itACCESS:          0  itHIT:          0  itMISS:          0  dtACCESS:          0  dtHIT:          0  dtMISS:          0
cpu0_DTLB PREFETCH  REQUESTED:          0  ISSUED:          0  CROSSED:          0  USEFUL:          0  USELESS:          0
cpu0_DTLB AVERAGE iMISS LATENCY: 0 cycles
cpu0_DTLB AVERAGE dMISS LATENCY: 7.04932 cycles
cpu0_DTLB AVERAGE itMISS LATENCY: 0 cycles
cpu0_DTLB AVERAGE dtMISS LATENCY: 0 cycles
cpu0_DTLB PAGE CROSSINGS (TLB HIT):         0 
cpu0_DTLB PAGE CROSSINGS (TLB MISS):         0 
cpu0_DTLB AVERAGE MISS LATENCY: 7.04932 cycles
cpu0_STLB TOTAL       ACCESS:    2494243  HIT:    2334813  MISS:     159430  iACCESS:     353612  iHIT:     342497  iMISS:      11115  dACCESS:    2140631  dHIT:    1992316  dMISS:     148315  itACCESS:          0  itHIT:          0  itMISS:          0  dtACCESS:          0  dtHIT:          0  dtMISS:          0
cpu0_STLB LOAD         ACCESS:    2494243  HIT:    2334813  MISS:     159430  iACCESS:     353612  iHIT:     342497  iMISS:      11115  dACCESS:    2140631  dHIT:    1992316  dMISS:     148315  itACCESS:          0  itHIT:          0  itMISS:          0  dtACCESS:          0  dtHIT:          0  dtMISS:          0
cpu0_STLB RFO          ACCESS:          0  HIT:          0  MISS:          0  iACCESS:          0  iHIT:          0  iMISS:          0  dACCESS:          0  dHIT:          0  dMISS:          0  itACCESS:          0  itHIT:          0  itMISS:          0  dtACCESS:          0  dtHIT:          0  dtMISS:          0
cpu0_STLB PREFETCH     ACCESS:          0  HIT:          0  MISS:          0  iACCESS:          0  iHIT:          0  iMISS:          0  dACCESS:          0  dHIT:          0  dMISS:          0  itACCESS:          0  itHIT:          0  itMISS:          0  dtACCESS:          0  dtHIT:          0  dtMISS:          0
cpu0_STLB WRITE        ACCESS:          0  HIT:          0  MISS:          0  iACCESS:          0  iHIT:          0  iMISS:          0  dACCESS:          0  dHIT:          0  dMISS:          0  itACCESS:          0  itHIT:          0  itMISS:          0  dtACCESS:          0  dtHIT:          0  dtMISS:          0
cpu0_STLB TRANSLATION  ACCESS:          0  HIT:          0  MISS:          0  iACCESS:          0  iHIT:          0  iMISS:          0  dACCESS:          0  dHIT:          0  dMISS:          0  itACCESS:          0  itHIT:          0  itMISS:          0  dtACCESS:          0  dtHIT:          0  dtMISS:          0
cpu0_STLB PREFETCH  REQUESTED:          0  ISSUED:          0  CROSSED:          0  USEFUL:          0  USELESS:          0
cpu0_STLB AVERAGE iMISS LATENCY: 8.11017 cycles
cpu0_STLB AVERAGE dMISS LATENCY: 73.6603 cycles
cpu0_STLB AVERAGE itMISS LATENCY: 0 cycles
cpu0_STLB AVERAGE dtMISS LATENCY: 0 cycles
cpu0_STLB PAGE CROSSINGS (TLB HIT):         0 
cpu0_STLB PAGE CROSSINGS (TLB MISS):         0 
cpu0_STLB AVERAGE MISS LATENCY: 81.7705 cycles
cpu0_L1D TOTAL       ACCESS:   44911383  HIT:   38687283  MISS:    6224100  iACCESS:          0  iHIT:          0  iMISS:          0  dACCESS:   44677520  dHIT:   38671483  dMISS:    6006037  itACCESS:      13938  itHIT:        985  itMISS:      12953  dtACCESS:     219925  dtHIT:      14815  dtMISS:     205110
cpu0_L1D LOAD         ACCESS:   21673556  HIT:   18195835  MISS:    3477721  iACCESS:          0  iHIT:          0  iMISS:          0  dACCESS:   21673556  dHIT:   18195835  dMISS:    3477721  itACCESS:          0  itHIT:          0  itMISS:          0  dtACCESS:          0  dtHIT:          0  dtMISS:          0
cpu0_L1D RFO          ACCESS:          0  HIT:          0  MISS:          0  iACCESS:          0  iHIT:          0  iMISS:          0  dACCESS:          0  dHIT:          0  dMISS:          0  itACCESS:          0  itHIT:          0  itMISS:          0  dtACCESS:          0  dtHIT:          0  dtMISS:          0
cpu0_L1D PREFETCH     ACCESS:   13098920  HIT:   11042626  MISS:    2056294  iACCESS:          0  iHIT:          0  iMISS:          0  dACCESS:   13098920  dHIT:   11042626  dMISS:    2056294  itACCESS:          0  itHIT:          0  itMISS:          0  dtACCESS:          0  dtHIT:          0  dtMISS:          0
cpu0_L1D WRITE        ACCESS:    9905044  HIT:    9433022  MISS:     472022  iACCESS:          0  iHIT:          0  iMISS:          0  dACCESS:    9905044  dHIT:    9433022  dMISS:     472022  itACCESS:          0  itHIT:          0  itMISS:          0  dtACCESS:          0  dtHIT:          0  dtMISS:          0
cpu0_L1D TRANSLATION  ACCESS:     233863  HIT:      15800  MISS:     218063  iACCESS:          0  iHIT:          0  iMISS:          0  dACCESS:          0  dHIT:          0  dMISS:          0  itACCESS:      13938  itHIT:        985  itMISS:      12953  dtACCESS:     219925  dtHIT:      14815  dtMISS:     205110
cpu0_L1D PREFETCH  REQUESTED:   21673556  ISSUED:   17206524  CROSSED:          0  USEFUL:     272361  USELESS:     701726
cpu0_L1D AVERAGE iMISS LATENCY: 0 cycles
cpu0_L1D AVERAGE dMISS LATENCY: 26.1921 cycles
cpu0_L1D AVERAGE itMISS LATENCY: 0.183077 cycles
cpu0_L1D AVERAGE dtMISS LATENCY: 1.43904 cycles
cpu0_L1D PAGE CROSSINGS (TLB HIT):         0 
cpu0_L1D PAGE CROSSINGS (TLB MISS):         0 
cpu0_L1D AVERAGE MISS LATENCY: 27.8142 cycles
cpu0_L2C TOTAL       ACCESS:    7772517  HIT:    1693115  MISS:    6079402  iACCESS:    2967472  iHIT:     612854  iMISS:    2354618  dACCESS:    4598153  dHIT:     927821  dMISS:    3670332  itACCESS:      12912  itHIT:       4856  itMISS:       8056  dtACCESS:     193980  dtHIT:     147584  dtMISS:      46396
cpu0_L2C LOAD         ACCESS:    2900183  HIT:     678211  MISS:    2221972  iACCESS:     695005  iHIT:      90985  iMISS:     604020  dACCESS:    2205178  dHIT:     587226  dMISS:    1617952  itACCESS:          0  itHIT:          0  itMISS:          0  dtACCESS:          0  dtHIT:          0  dtMISS:          0
cpu0_L2C RFO          ACCESS:     170445  HIT:       8055  MISS:     162390  iACCESS:          0  iHIT:          0  iMISS:          0  dACCESS:     170445  dHIT:       8055  dMISS:     162390  itACCESS:          0  itHIT:          0  itMISS:          0  dtACCESS:          0  dtHIT:          0  dtMISS:          0
cpu0_L2C PREFETCH     ACCESS:    4242226  HIT:     806683  MISS:    3435543  iACCESS:    2272467  iHIT:     521869  iMISS:    1750598  dACCESS:    1969759  dHIT:     284814  dMISS:    1684945  itACCESS:          0  itHIT:          0  itMISS:          0  dtACCESS:          0  dtHIT:          0  dtMISS:          0
cpu0_L2C WRITE        ACCESS:     252771  HIT:      47726  MISS:     205045  iACCESS:          0  iHIT:          0  iMISS:          0  dACCESS:     252771  dHIT:      47726  dMISS:     205045  itACCESS:          0  itHIT:          0  itMISS:          0  dtACCESS:          0  dtHIT:          0  dtMISS:          0
cpu0_L2C TRANSLATION  ACCESS:     206892  HIT:     152440  MISS:      54452  iACCESS:          0  iHIT:          0  iMISS:          0  dACCESS:          0  dHIT:          0  dMISS:          0  itACCESS:      12912  itHIT:       4856  itMISS:       8056  dtACCESS:     193980  dtHIT:     147584  dtMISS:      46396
cpu0_L2C PREFETCH  REQUESTED:    1212239  ISSUED:    1212239  CROSSED:          0  USEFUL:     359086  USELESS:     362049
cpu0_L2C AVERAGE iMISS LATENCY: 15.3658 cycles
cpu0_L2C AVERAGE dMISS LATENCY: 28.4695 cycles
cpu0_L2C AVERAGE itMISS LATENCY: 0.166953 cycles
cpu0_L2C AVERAGE dtMISS LATENCY: 1.17707 cycles
cpu0_L2C PAGE CROSSINGS (TLB HIT):         0 
cpu0_L2C PAGE CROSSINGS (TLB MISS):         0 
cpu0_L2C AVERAGE MISS LATENCY: 45.1793 cycles
LLC TOTAL       ACCESS:    5988066  HIT:    4967546  MISS:    1020520  iACCESS:    2299191  iHIT:    1963903  iMISS:     335288  dACCESS:    3634423  dHIT:    2989135  dMISS:     645288  itACCESS:       8056  itHIT:       3129  itMISS:       4927  dtACCESS:      46396  dtHIT:      11379  dtMISS:      35017
LLC LOAD         ACCESS:    2219812  HIT:    1976243  MISS:     243569  iACCESS:     602743  iHIT:     530861  iMISS:      71882  dACCESS:    1617069  dHIT:    1445382  dMISS:     171687  itACCESS:          0  itHIT:          0  itMISS:          0  dtACCESS:          0  dtHIT:          0  dtMISS:          0
LLC RFO          ACCESS:     162384  HIT:     112547  MISS:      49837  iACCESS:          0  iHIT:          0  iMISS:          0  dACCESS:     162384  dHIT:     112547  dMISS:      49837  itACCESS:          0  itHIT:          0  itMISS:          0  dtACCESS:          0  dtHIT:          0  dtMISS:          0
LLC PREFETCH     ACCESS:    3321788  HIT:    2634620  MISS:     687168  iACCESS:    1696448  iHIT:    1433042  iMISS:     263406  dACCESS:    1625340  dHIT:    1201578  dMISS:     423762  itACCESS:          0  itHIT:          0  itMISS:          0  dtACCESS:          0  dtHIT:          0  dtMISS:          0
LLC WRITE        ACCESS:     229630  HIT:     229628  MISS:          2  iACCESS:          0  iHIT:          0  iMISS:          0  dACCESS:     229630  dHIT:     229628  dMISS:          2  itACCESS:          0  itHIT:          0  itMISS:          0  dtACCESS:          0  dtHIT:          0  dtMISS:          0
LLC TRANSLATION  ACCESS:      54452  HIT:      14508  MISS:      39944  iACCESS:          0  iHIT:          0  iMISS:          0  dACCESS:          0  dHIT:          0  dMISS:          0  itACCESS:       8056  itHIT:       3129  itMISS:       4927  dtACCESS:      46396  dtHIT:      11379  dtMISS:      35017
LLC PREFETCH  REQUESTED:          0  ISSUED:          0  CROSSED:          0  USEFUL:          0  USELESS:          0
LLC AVERAGE iMISS LATENCY: 48.0128 cycles
LLC AVERAGE dMISS LATENCY: 105.089 cycles
LLC AVERAGE itMISS LATENCY: 0.84012 cycles
LLC AVERAGE dtMISS LATENCY: 6.11677 cycles
LLC PAGE CROSSINGS (TLB HIT):         0 
LLC PAGE CROSSINGS (TLB MISS):         0 
LLC AVERAGE MISS LATENCY: 160.059 cycles

PageTableWalker TOTAL       ACCESS:      86791  
PageTableWalker AVERAGE LATENCY: 4.73306 cycles
PageTableWalker TOTAL LATENCY: 410787 cycles

DRAM Statistics
Channel 0
 RQ ROW_BUFFER_HIT:     297525
  ROW_BUFFER_MISS:     722251
 AVG DBUS CONGESTED CYCLE:    3.63865
 WQ ROW_BUFFER_HIT:      26996
  ROW_BUFFER_MISS:      32538  FULL:          0

