last_page:0x200000000000000
VMEM_RES_CAP:0x100000
PAGE_SIZE:4096
LOG2_PAGE_SIZE:12
LOG2_PAGE_TABLE_SIZE:9
page_table_levels:5
WARNING: physical memory size is smaller than virtual memory size
FDiP enabled with aggresivity 16

*** ChampSim Multicore Out-of-Order Simulator ***

Warmup Instructions: 50000000
Simulation Instructions: 100000000
Number of CPUs: 1
Small page size: 4096
Large page size: 2097152

CPU 0 Bimodal branch predictor
Basic BTB sets: 1024 ways: 8 indirect buffer size: 4096 RAS size: 64
Instruction page size distrubution: 0
Loading instruction page size distribution from /home/bsc/bsc018186/scratch/itp_asplos25_AE/dump/srv757_ap.pdst
Data page size distrubution: 0
Loading data page size distribution from /home/bsc/bsc018186/scratch/itp_asplos25_AE/dump/srv757_ap.pdst
cpu0_L2C IP-based stride prefetcher
cpu0_L2C is using xPTP/LRU
	TLB_LOWER_STRESS_THRESHOLD:1
	TLB_UPPER_STRESS_THRESHOLD:9
	MIN_EVICTION_POSITION:4
cpu0_L1D next line prefetcher
cpu0_STLB using iTP with max lru@8
cpu0_STLB using iTP with instr@0 and data@2
Init sat counter with 3 bits (max:50).
cpu0_L1I next line prefetcher
Off-chip DRAM Size: 4 GiB Channels: 1 Width: 64-bit Data Rate: 3200 MT/s
Heartbeat CPU 0 instructions: 10000001 cycles: 2500208 heartbeat IPC: 3.99967 cumulative IPC: 3.99967 (Simulation time: 0 hr 0 min 37 sec) 
Heartbeat CPU 0 instructions: 20000001 cycles: 5002668 heartbeat IPC: 3.99607 cumulative IPC: 3.99787 (Simulation time: 0 hr 1 min 15 sec) 
Heartbeat CPU 0 instructions: 30000002 cycles: 7502705 heartbeat IPC: 3.99995 cumulative IPC: 3.99856 (Simulation time: 0 hr 1 min 55 sec) 
Heartbeat CPU 0 instructions: 40000000 cycles: 10003577 heartbeat IPC: 3.99861 cumulative IPC: 3.99857 (Simulation time: 0 hr 2 min 37 sec) 
Heartbeat CPU 0 instructions: 50000000 cycles: 12527845 heartbeat IPC: 3.96155 cumulative IPC: 3.99111 (Simulation time: 0 hr 3 min 19 sec) 
Warmup finished CPU 0 instructions: 50000000 cycles: 12527846 cumulative IPC: 3.99111 (Simulation time: 0 hr 3 min 19 sec) 

Warmup complete CPU 0 instructions: 50000000 cycles: 12527846 (Simulation time: 0 hr 3 min 19 sec) 

Heartbeat CPU 0 instructions: 60000004 cycles: 26745254 heartbeat IPC: 0.703364 cumulative IPC: 0.703364 (Simulation time: 0 hr 4 min 27 sec) 
Heartbeat CPU 0 instructions: 70000000 cycles: 37889257 heartbeat IPC: 0.897344 cumulative IPC: 0.7886 (Simulation time: 0 hr 5 min 28 sec) 
Heartbeat CPU 0 instructions: 80000004 cycles: 57669382 heartbeat IPC: 0.505559 cumulative IPC: 0.664577 (Simulation time: 0 hr 6 min 45 sec) 
Heartbeat CPU 0 instructions: 90000001 cycles: 78702367 heartbeat IPC: 0.475444 cumulative IPC: 0.604463 (Simulation time: 0 hr 8 min 4 sec) 
Heartbeat CPU 0 instructions: 100000001 cycles: 99248338 heartbeat IPC: 0.486714 cumulative IPC: 0.576566 (Simulation time: 0 hr 9 min 22 sec) 
*** Reached end of trace: /gpfs/projects/bsc18/MN4/bsc18/romol/ChampSim/traces/qualcomm_srv/srv757_ap.champsimtrace.xz
Heartbeat CPU 0 instructions: 110000002 cycles: 118286768 heartbeat IPC: 0.525254 cumulative IPC: 0.567329 (Simulation time: 0 hr 10 min 33 sec) 
Heartbeat CPU 0 instructions: 120000001 cycles: 137182923 heartbeat IPC: 0.529209 cumulative IPC: 0.56155 (Simulation time: 0 hr 11 min 45 sec) 
Heartbeat CPU 0 instructions: 130000002 cycles: 155709516 heartbeat IPC: 0.539765 cumulative IPC: 0.558731 (Simulation time: 0 hr 12 min 59 sec) 
Heartbeat CPU 0 instructions: 140000000 cycles: 174148111 heartbeat IPC: 0.542341 cumulative IPC: 0.556861 (Simulation time: 0 hr 14 min 14 sec) 
Heartbeat CPU 0 instructions: 150000001 cycles: 186395439 heartbeat IPC: 0.816505 cumulative IPC: 0.575151 (Simulation time: 0 hr 15 min 17 sec) 
Simulation finished CPU 0 instructions: 100000001 cycles: 173867594 cumulative IPC: 0.575151 (Simulation time: 0 hr 15 min 17 sec) 

Simulation complete CPU 0 instructions: 100000001 cycles: 173867594 (Simulation time: 0 hr 15 min 17 sec) 


ChampSim completed all CPUs

Saving instructions large page distribution to /home/bsc/bsc018186/scratch/itp_asplos25_AE/dump/srv757_ap.pdst...
Saving data large page distribution to /home/bsc/bsc018186/scratch/itp_asplos25_AE/dump/srv757_ap.pdst...
=== Simulation ===
CPU 0 runs /gpfs/projects/bsc18/MN4/bsc18/romol/ChampSim/traces/qualcomm_srv/srv757_ap.champsimtrace.xz

Region of Interest Statistics

CPU 0 cumulative IPC: 0.575151 instructions: 100000001 cycles: 173867594
CPU 0 Branch Prediction Accuracy: 80.6511% MPKI: 37.1288 Average ROB Occupancy at Mispredict: 10.4302
Branch type MPKI
BRANCH_DIRECT_JUMP: 0.92759
BRANCH_INDIRECT: 18.2329
BRANCH_CONDITIONAL: 12.4353
BRANCH_DIRECT_CALL: 1.68482
BRANCH_INDIRECT_CALL: 2.63133
BRANCH_RETURN: 1.2169

Instructions large pages: 0
Instructions small pages: 1612
Large page distribution for instructions: 0%

Data large pages: 0
Data small pages: 6177
Large page distribution for data: 0%

cpu0_L1I TOTAL       ACCESS:   31843473  HIT:   25583020  MISS:    6260453  iACCESS:   31843473  iHIT:   25583020  iMISS:    6260453  dACCESS:          0  dHIT:          0  dMISS:          0  itACCESS:          0  itHIT:          0  itMISS:          0  dtACCESS:          0  dtHIT:          0  dtMISS:          0
cpu0_L1I LOAD         ACCESS:    7881417  HIT:    6142860  MISS:    1738557  iACCESS:    7881417  iHIT:    6142860  iMISS:    1738557  dACCESS:          0  dHIT:          0  dMISS:          0  itACCESS:          0  itHIT:          0  itMISS:          0  dtACCESS:          0  dtHIT:          0  dtMISS:          0
cpu0_L1I RFO          ACCESS:          0  HIT:          0  MISS:          0  iACCESS:          0  iHIT:          0  iMISS:          0  dACCESS:          0  dHIT:          0  dMISS:          0  itACCESS:          0  itHIT:          0  itMISS:          0  dtACCESS:          0  dtHIT:          0  dtMISS:          0
cpu0_L1I PREFETCH     ACCESS:   23962056  HIT:   19440160  MISS:    4521896  iACCESS:   23962056  iHIT:   19440160  iMISS:    4521896  dACCESS:          0  dHIT:          0  dMISS:          0  itACCESS:          0  itHIT:          0  itMISS:          0  dtACCESS:          0  dtHIT:          0  dtMISS:          0
cpu0_L1I WRITE        ACCESS:          0  HIT:          0  MISS:          0  iACCESS:          0  iHIT:          0  iMISS:          0  dACCESS:          0  dHIT:          0  dMISS:          0  itACCESS:          0  itHIT:          0  itMISS:          0  dtACCESS:          0  dtHIT:          0  dtMISS:          0
cpu0_L1I TRANSLATION  ACCESS:          0  HIT:          0  MISS:          0  iACCESS:          0  iHIT:          0  iMISS:          0  dACCESS:          0  dHIT:          0  dMISS:          0  itACCESS:          0  itHIT:          0  itMISS:          0  dtACCESS:          0  dtHIT:          0  dtMISS:          0
cpu0_L1I PREFETCH  REQUESTED:   25604040  ISSUED:   25603817  CROSSED:          0  USEFUL:    1519598  USELESS:     539573
cpu0_L1I AVERAGE iMISS LATENCY: 18.6547 cycles
cpu0_L1I AVERAGE dMISS LATENCY: 0 cycles
cpu0_L1I AVERAGE itMISS LATENCY: 0 cycles
cpu0_L1I AVERAGE dtMISS LATENCY: 0 cycles
cpu0_L1I PAGE CROSSINGS (TLB HIT):         0 
cpu0_L1I PAGE CROSSINGS (TLB MISS):         0 
cpu0_L1I AVERAGE MISS LATENCY: 18.6547 cycles
cpu0_ITLB TOTAL       ACCESS:   27286231  HIT:   25847844  MISS:    1438387  iACCESS:   27286231  iHIT:   25847844  iMISS:    1438387  dACCESS:          0  dHIT:          0  dMISS:          0  itACCESS:          0  itHIT:          0  itMISS:          0  dtACCESS:          0  dtHIT:          0  dtMISS:          0
cpu0_ITLB LOAD         ACCESS:   27286231  HIT:   25847844  MISS:    1438387  iACCESS:   27286231  iHIT:   25847844  iMISS:    1438387  dACCESS:          0  dHIT:          0  dMISS:          0  itACCESS:          0  itHIT:          0  itMISS:          0  dtACCESS:          0  dtHIT:          0  dtMISS:          0
cpu0_ITLB RFO          ACCESS:          0  HIT:          0  MISS:          0  iACCESS:          0  iHIT:          0  iMISS:          0  dACCESS:          0  dHIT:          0  dMISS:          0  itACCESS:          0  itHIT:          0  itMISS:          0  dtACCESS:          0  dtHIT:          0  dtMISS:          0
cpu0_ITLB PREFETCH     ACCESS:          0  HIT:          0  MISS:          0  iACCESS:          0  iHIT:          0  iMISS:          0  dACCESS:          0  dHIT:          0  dMISS:          0  itACCESS:          0  itHIT:          0  itMISS:          0  dtACCESS:          0  dtHIT:          0  dtMISS:          0
cpu0_ITLB WRITE        ACCESS:          0  HIT:          0  MISS:          0  iACCESS:          0  iHIT:          0  iMISS:          0  dACCESS:          0  dHIT:          0  dMISS:          0  itACCESS:          0  itHIT:          0  itMISS:          0  dtACCESS:          0  dtHIT:          0  dtMISS:          0
cpu0_ITLB TRANSLATION  ACCESS:          0  HIT:          0  MISS:          0  iACCESS:          0  iHIT:          0  iMISS:          0  dACCESS:          0  dHIT:          0  dMISS:          0  itACCESS:          0  itHIT:          0  itMISS:          0  dtACCESS:          0  dtHIT:          0  dtMISS:          0
cpu0_ITLB PREFETCH  REQUESTED:          0  ISSUED:          0  CROSSED:          0  USEFUL:     250242  USELESS:      47969
cpu0_ITLB AVERAGE iMISS LATENCY: 4.47646 cycles
cpu0_ITLB AVERAGE dMISS LATENCY: 0 cycles
cpu0_ITLB AVERAGE itMISS LATENCY: 0 cycles
cpu0_ITLB AVERAGE dtMISS LATENCY: 0 cycles
cpu0_ITLB PAGE CROSSINGS (TLB HIT):         0 
cpu0_ITLB PAGE CROSSINGS (TLB MISS):         0 
cpu0_ITLB AVERAGE MISS LATENCY: 4.47646 cycles
cpu0_DTLB TOTAL       ACCESS:   31044045  HIT:   29516783  MISS:    1527262  iACCESS:          0  iHIT:          0  iMISS:          0  dACCESS:   31044045  dHIT:   29516783  dMISS:    1527262  itACCESS:          0  itHIT:          0  itMISS:          0  dtACCESS:          0  dtHIT:          0  dtMISS:          0
cpu0_DTLB LOAD         ACCESS:   31044045  HIT:   29516783  MISS:    1527262  iACCESS:          0  iHIT:          0  iMISS:          0  dACCESS:   31044045  dHIT:   29516783  dMISS:    1527262  itACCESS:          0  itHIT:          0  itMISS:          0  dtACCESS:          0  dtHIT:          0  dtMISS:          0
cpu0_DTLB RFO          ACCESS:          0  HIT:          0  MISS:          0  iACCESS:          0  iHIT:          0  iMISS:          0  dACCESS:          0  dHIT:          0  dMISS:          0  itACCESS:          0  itHIT:          0  itMISS:          0  dtACCESS:          0  dtHIT:          0  dtMISS:          0
cpu0_DTLB PREFETCH     ACCESS:          0  HIT:          0  MISS:          0  iACCESS:          0  iHIT:          0  iMISS:          0  dACCESS:          0  dHIT:          0  dMISS:          0  itACCESS:          0  itHIT:          0  itMISS:          0  dtACCESS:          0  dtHIT:          0  dtMISS:          0
cpu0_DTLB WRITE        ACCESS:          0  HIT:          0  MISS:          0  iACCESS:          0  iHIT:          0  iMISS:          0  dACCESS:          0  dHIT:          0  dMISS:          0  itACCESS:          0  itHIT:          0  itMISS:          0  dtACCESS:          0  dtHIT:          0  dtMISS:          0
cpu0_DTLB TRANSLATION  ACCESS:          0  HIT:          0  MISS:          0  iACCESS:          0  iHIT:          0  iMISS:          0  dACCESS:          0  dHIT:          0  dMISS:          0  itACCESS:          0  itHIT:          0  itMISS:          0  dtACCESS:          0  dtHIT:          0  dtMISS:          0
cpu0_DTLB PREFETCH  REQUESTED:          0  ISSUED:          0  CROSSED:          0  USEFUL:          0  USELESS:          0
cpu0_DTLB AVERAGE iMISS LATENCY: 0 cycles
cpu0_DTLB AVERAGE dMISS LATENCY: 14.5134 cycles
cpu0_DTLB AVERAGE itMISS LATENCY: 0 cycles
cpu0_DTLB AVERAGE dtMISS LATENCY: 0 cycles
cpu0_DTLB PAGE CROSSINGS (TLB HIT):         0 
cpu0_DTLB PAGE CROSSINGS (TLB MISS):         0 
cpu0_DTLB AVERAGE MISS LATENCY: 14.5134 cycles
cpu0_STLB TOTAL       ACCESS:    1205128  HIT:    1051232  MISS:     153896  iACCESS:     298218  iHIT:     264458  iMISS:      33760  dACCESS:     906910  dHIT:     786774  dMISS:     120136  itACCESS:          0  itHIT:          0  itMISS:          0  dtACCESS:          0  dtHIT:          0  dtMISS:          0
cpu0_STLB LOAD         ACCESS:    1205128  HIT:    1051232  MISS:     153896  iACCESS:     298218  iHIT:     264458  iMISS:      33760  dACCESS:     906910  dHIT:     786774  dMISS:     120136  itACCESS:          0  itHIT:          0  itMISS:          0  dtACCESS:          0  dtHIT:          0  dtMISS:          0
cpu0_STLB RFO          ACCESS:          0  HIT:          0  MISS:          0  iACCESS:          0  iHIT:          0  iMISS:          0  dACCESS:          0  dHIT:          0  dMISS:          0  itACCESS:          0  itHIT:          0  itMISS:          0  dtACCESS:          0  dtHIT:          0  dtMISS:          0
cpu0_STLB PREFETCH     ACCESS:          0  HIT:          0  MISS:          0  iACCESS:          0  iHIT:          0  iMISS:          0  dACCESS:          0  dHIT:          0  dMISS:          0  itACCESS:          0  itHIT:          0  itMISS:          0  dtACCESS:          0  dtHIT:          0  dtMISS:          0
cpu0_STLB WRITE        ACCESS:          0  HIT:          0  MISS:          0  iACCESS:          0  iHIT:          0  iMISS:          0  dACCESS:          0  dHIT:          0  dMISS:          0  itACCESS:          0  itHIT:          0  itMISS:          0  dtACCESS:          0  dtHIT:          0  dtMISS:          0
cpu0_STLB TRANSLATION  ACCESS:          0  HIT:          0  MISS:          0  iACCESS:          0  iHIT:          0  iMISS:          0  dACCESS:          0  dHIT:          0  dMISS:          0  itACCESS:          0  itHIT:          0  itMISS:          0  dtACCESS:          0  dtHIT:          0  dtMISS:          0
cpu0_STLB PREFETCH  REQUESTED:          0  ISSUED:          0  CROSSED:          0  USEFUL:          0  USELESS:          0
cpu0_STLB AVERAGE iMISS LATENCY: 26.6265 cycles
cpu0_STLB AVERAGE dMISS LATENCY: 96.8998 cycles
cpu0_STLB AVERAGE itMISS LATENCY: 0 cycles
cpu0_STLB AVERAGE dtMISS LATENCY: 0 cycles
cpu0_STLB PAGE CROSSINGS (TLB HIT):         0 
cpu0_STLB PAGE CROSSINGS (TLB MISS):         0 
cpu0_STLB AVERAGE MISS LATENCY: 123.527 cycles
cpu0_L1D TOTAL       ACCESS:   48412714  HIT:   43177285  MISS:    5235429  iACCESS:          0  iHIT:          0  iMISS:          0  dACCESS:   48162969  dHIT:   43163118  dMISS:    4999851  itACCESS:      46101  itHIT:       4474  itMISS:      41627  dtACCESS:     203644  dtHIT:       9693  dtMISS:     193951
cpu0_L1D LOAD         ACCESS:   22966651  HIT:   20969565  MISS:    1997086  iACCESS:          0  iHIT:          0  iMISS:          0  dACCESS:   22966651  dHIT:   20969565  dMISS:    1997086  itACCESS:          0  itHIT:          0  itMISS:          0  dtACCESS:          0  dtHIT:          0  dtMISS:          0
cpu0_L1D RFO          ACCESS:          0  HIT:          0  MISS:          0  iACCESS:          0  iHIT:          0  iMISS:          0  dACCESS:          0  dHIT:          0  dMISS:          0  itACCESS:          0  itHIT:          0  itMISS:          0  dtACCESS:          0  dtHIT:          0  dtMISS:          0
cpu0_L1D PREFETCH     ACCESS:   14917346  HIT:   13044248  MISS:    1873098  iACCESS:          0  iHIT:          0  iMISS:          0  dACCESS:   14917346  dHIT:   13044248  dMISS:    1873098  itACCESS:          0  itHIT:          0  itMISS:          0  dtACCESS:          0  dtHIT:          0  dtMISS:          0
cpu0_L1D WRITE        ACCESS:   10278972  HIT:    9149305  MISS:    1129667  iACCESS:          0  iHIT:          0  iMISS:          0  dACCESS:   10278972  dHIT:    9149305  dMISS:    1129667  itACCESS:          0  itHIT:          0  itMISS:          0  dtACCESS:          0  dtHIT:          0  dtMISS:          0
cpu0_L1D TRANSLATION  ACCESS:     249745  HIT:      14167  MISS:     235578  iACCESS:          0  iHIT:          0  iMISS:          0  dACCESS:          0  dHIT:          0  dMISS:          0  itACCESS:      46101  itHIT:       4474  itMISS:      41627  dtACCESS:     203644  dtHIT:       9693  dtMISS:     193951
cpu0_L1D PREFETCH  REQUESTED:   22966651  ISSUED:   20429721  CROSSED:          0  USEFUL:     334515  USELESS:     686022
cpu0_L1D AVERAGE iMISS LATENCY: 0 cycles
cpu0_L1D AVERAGE dMISS LATENCY: 32.8197 cycles
cpu0_L1D AVERAGE itMISS LATENCY: 0.717927 cycles
cpu0_L1D AVERAGE dtMISS LATENCY: 2.53357 cycles
cpu0_L1D PAGE CROSSINGS (TLB HIT):         0 
cpu0_L1D PAGE CROSSINGS (TLB MISS):         0 
cpu0_L1D AVERAGE MISS LATENCY: 36.0712 cycles
cpu0_L2C TOTAL       ACCESS:    6249130  HIT:    1801515  MISS:    4447615  iACCESS:    2622728  iHIT:     944463  iMISS:    1678265  dACCESS:    3446662  dHIT:     771873  dMISS:    2674789  itACCESS:      32105  itHIT:       7912  itMISS:      24193  dtACCESS:     147635  dtHIT:      77267  dtMISS:      70368
cpu0_L2C LOAD         ACCESS:    1595197  HIT:     389211  MISS:    1205986  iACCESS:     586648  iHIT:     198650  iMISS:     387998  dACCESS:    1008549  dHIT:     190561  dMISS:     817988  itACCESS:          0  itHIT:          0  itMISS:          0  dtACCESS:          0  dtHIT:          0  dtMISS:          0
cpu0_L2C RFO          ACCESS:     211660  HIT:      24941  MISS:     186719  iACCESS:          0  iHIT:          0  iMISS:          0  dACCESS:     211660  dHIT:      24941  dMISS:     186719  itACCESS:          0  itHIT:          0  itMISS:          0  dtACCESS:          0  dtHIT:          0  dtMISS:          0
cpu0_L2C PREFETCH     ACCESS:    3965656  HIT:    1172850  MISS:    2792806  iACCESS:    2036080  iHIT:     745813  iMISS:    1290267  dACCESS:    1929576  dHIT:     427037  dMISS:    1502539  itACCESS:          0  itHIT:          0  itMISS:          0  dtACCESS:          0  dtHIT:          0  dtMISS:          0
cpu0_L2C WRITE        ACCESS:     296877  HIT:     129334  MISS:     167543  iACCESS:          0  iHIT:          0  iMISS:          0  dACCESS:     296877  dHIT:     129334  dMISS:     167543  itACCESS:          0  itHIT:          0  itMISS:          0  dtACCESS:          0  dtHIT:          0  dtMISS:          0
cpu0_L2C TRANSLATION  ACCESS:     179740  HIT:      85179  MISS:      94561  iACCESS:          0  iHIT:          0  iMISS:          0  dACCESS:          0  dHIT:          0  dMISS:          0  itACCESS:      32105  itHIT:       7912  itMISS:      24193  dtACCESS:     147635  dtHIT:      77267  dtMISS:      70368
cpu0_L2C PREFETCH  REQUESTED:    1084472  ISSUED:    1084380  CROSSED:          0  USEFUL:     270126  USELESS:     301071
cpu0_L2C AVERAGE iMISS LATENCY: 21.029 cycles
cpu0_L2C AVERAGE dMISS LATENCY: 44.591 cycles
cpu0_L2C AVERAGE itMISS LATENCY: 0.774454 cycles
cpu0_L2C AVERAGE dtMISS LATENCY: 2.66635 cycles
cpu0_L2C PAGE CROSSINGS (TLB HIT):         0 
cpu0_L2C PAGE CROSSINGS (TLB MISS):         0 
cpu0_L2C AVERAGE MISS LATENCY: 69.0608 cycles
LLC TOTAL       ACCESS:    4389530  HIT:    3040885  MISS:    1348645  iACCESS:    1629235  iHIT:    1228784  iMISS:     400451  dACCESS:    2665734  dHIT:    1788170  dMISS:     877564  itACCESS:      24193  itHIT:       7607  itMISS:      16586  dtACCESS:      70368  dtHIT:      16324  dtMISS:      54044
LLC LOAD         ACCESS:    1201151  HIT:     885362  MISS:     315789  iACCESS:     387163  iHIT:     307918  iMISS:      79245  dACCESS:     813988  dHIT:     577444  dMISS:     236544  itACCESS:          0  itHIT:          0  itMISS:          0  dtACCESS:          0  dtHIT:          0  dtMISS:          0
LLC RFO          ACCESS:     186711  HIT:      85095  MISS:     101616  iACCESS:          0  iHIT:          0  iMISS:          0  dACCESS:     186711  dHIT:      85095  dMISS:     101616  itACCESS:          0  itHIT:          0  itMISS:          0  dtACCESS:          0  dtHIT:          0  dtMISS:          0
LLC PREFETCH     ACCESS:    2674524  HIT:    1815782  MISS:     858742  iACCESS:    1242072  iHIT:     920866  iMISS:     321206  dACCESS:    1432452  dHIT:     894916  dMISS:     537536  itACCESS:          0  itHIT:          0  itMISS:          0  dtACCESS:          0  dtHIT:          0  dtMISS:          0
LLC WRITE        ACCESS:     232583  HIT:     230715  MISS:       1868  iACCESS:          0  iHIT:          0  iMISS:          0  dACCESS:     232583  dHIT:     230715  dMISS:       1868  itACCESS:          0  itHIT:          0  itMISS:          0  dtACCESS:          0  dtHIT:          0  dtMISS:          0
LLC TRANSLATION  ACCESS:      94561  HIT:      23931  MISS:      70630  iACCESS:          0  iHIT:          0  iMISS:          0  dACCESS:          0  dHIT:          0  dMISS:          0  itACCESS:      24193  itHIT:       7607  itMISS:      16586  dtACCESS:      70368  dtHIT:      16324  dtMISS:      54044
LLC PREFETCH  REQUESTED:          0  ISSUED:          0  CROSSED:          0  USEFUL:          0  USELESS:          0
LLC AVERAGE iMISS LATENCY: 45.9438 cycles
LLC AVERAGE dMISS LATENCY: 113.047 cycles
LLC AVERAGE itMISS LATENCY: 2.20193 cycles
LLC AVERAGE dtMISS LATENCY: 7.76582 cycles
LLC PAGE CROSSINGS (TLB HIT):         0 
LLC PAGE CROSSINGS (TLB MISS):         0 
LLC AVERAGE MISS LATENCY: 168.958 cycles

PageTableWalker TOTAL       ACCESS:      79179  
PageTableWalker AVERAGE LATENCY: 4.31808 cycles
PageTableWalker TOTAL LATENCY: 341901 cycles

DRAM Statistics
Channel 0
 RQ ROW_BUFFER_HIT:     367128
  ROW_BUFFER_MISS:     969108
 AVG DBUS CONGESTED CYCLE:    3.69125
 WQ ROW_BUFFER_HIT:      36419
  ROW_BUFFER_MISS:      59132  FULL:          0

