last_page:0x200000000000000
VMEM_RES_CAP:0x100000
PAGE_SIZE:4096
LOG2_PAGE_SIZE:12
LOG2_PAGE_TABLE_SIZE:9
page_table_levels:5
WARNING: physical memory size is smaller than virtual memory size
FDiP enabled with aggresivity 16

*** ChampSim Multicore Out-of-Order Simulator ***

Warmup Instructions: 50000000
Simulation Instructions: 100000000
Number of CPUs: 1
Small page size: 4096
Large page size: 2097152

CPU 0 Bimodal branch predictor
Basic BTB sets: 1024 ways: 8 indirect buffer size: 4096 RAS size: 64
Instruction page size distrubution: 0
Loading instruction page size distribution from /home/bsc/bsc018186/scratch/itp_asplos25_AE/dump/srv742_ap.pdst
Data page size distrubution: 0
Loading data page size distribution from /home/bsc/bsc018186/scratch/itp_asplos25_AE/dump/srv742_ap.pdst
cpu0_L2C IP-based stride prefetcher
cpu0_L2C is using PTP replacement policy:
	TLB_STRESS_THRESHOLD:0
	PTE_EVICTION_RATIO:0
cpu0_L1D next line prefetcher
cpu0_L1I next line prefetcher
Off-chip DRAM Size: 4 GiB Channels: 1 Width: 64-bit Data Rate: 3200 MT/s
Heartbeat CPU 0 instructions: 10000002 cycles: 2933082 heartbeat IPC: 3.40939 cumulative IPC: 3.40939 (Simulation time: 0 hr 0 min 39 sec) 
Heartbeat CPU 0 instructions: 20000002 cycles: 5442912 heartbeat IPC: 3.98434 cumulative IPC: 3.67451 (Simulation time: 0 hr 1 min 16 sec) 
Heartbeat CPU 0 instructions: 30000002 cycles: 7943206 heartbeat IPC: 3.99953 cumulative IPC: 3.77682 (Simulation time: 0 hr 1 min 56 sec) 
Heartbeat CPU 0 instructions: 40000000 cycles: 10443799 heartbeat IPC: 3.99906 cumulative IPC: 3.83003 (Simulation time: 0 hr 2 min 37 sec) 
Heartbeat CPU 0 instructions: 50000002 cycles: 13185985 heartbeat IPC: 3.64673 cumulative IPC: 3.79191 (Simulation time: 0 hr 3 min 18 sec) 
Warmup finished CPU 0 instructions: 50000002 cycles: 13185986 cumulative IPC: 3.79191 (Simulation time: 0 hr 3 min 18 sec) 

Warmup complete CPU 0 instructions: 50000002 cycles: 13185986 (Simulation time: 0 hr 3 min 18 sec) 

Heartbeat CPU 0 instructions: 60000000 cycles: 36409145 heartbeat IPC: 0.430605 cumulative IPC: 0.430605 (Simulation time: 0 hr 4 min 34 sec) 
Heartbeat CPU 0 instructions: 70000004 cycles: 59131164 heartbeat IPC: 0.440102 cumulative IPC: 0.435302 (Simulation time: 0 hr 5 min 49 sec) 
Heartbeat CPU 0 instructions: 80000001 cycles: 74668621 heartbeat IPC: 0.643606 cumulative IPC: 0.487943 (Simulation time: 0 hr 6 min 57 sec) 
Heartbeat CPU 0 instructions: 90000004 cycles: 97133783 heartbeat IPC: 0.445134 cumulative IPC: 0.476487 (Simulation time: 0 hr 8 min 14 sec) 
Heartbeat CPU 0 instructions: 100000003 cycles: 105558661 heartbeat IPC: 1.18697 cumulative IPC: 0.541286 (Simulation time: 0 hr 9 min 4 sec) 
*** Reached end of trace: /gpfs/projects/bsc18/MN4/bsc18/romol/ChampSim/traces/qualcomm_srv/srv742_ap.champsimtrace.xz
Heartbeat CPU 0 instructions: 110000002 cycles: 118460157 heartbeat IPC: 0.775104 cumulative IPC: 0.569941 (Simulation time: 0 hr 10 min 7 sec) 
Heartbeat CPU 0 instructions: 120000003 cycles: 125914073 heartbeat IPC: 1.34158 cumulative IPC: 0.620964 (Simulation time: 0 hr 10 min 57 sec) 
Heartbeat CPU 0 instructions: 130000003 cycles: 147052003 heartbeat IPC: 0.473084 cumulative IPC: 0.597613 (Simulation time: 0 hr 12 min 11 sec) 
Heartbeat CPU 0 instructions: 140000003 cycles: 172725424 heartbeat IPC: 0.389508 cumulative IPC: 0.564124 (Simulation time: 0 hr 13 min 33 sec) 
Heartbeat CPU 0 instructions: 150000002 cycles: 191073341 heartbeat IPC: 0.545021 cumulative IPC: 0.562154 (Simulation time: 0 hr 14 min 46 sec) 
Simulation finished CPU 0 instructions: 100000000 cycles: 177887356 cumulative IPC: 0.562154 (Simulation time: 0 hr 14 min 46 sec) 

Simulation complete CPU 0 instructions: 100000000 cycles: 177887356 (Simulation time: 0 hr 14 min 46 sec) 


ChampSim completed all CPUs

Saving instructions large page distribution to /home/bsc/bsc018186/scratch/itp_asplos25_AE/dump/srv742_ap.pdst...
Saving data large page distribution to /home/bsc/bsc018186/scratch/itp_asplos25_AE/dump/srv742_ap.pdst...
=== Simulation ===
CPU 0 runs /gpfs/projects/bsc18/MN4/bsc18/romol/ChampSim/traces/qualcomm_srv/srv742_ap.champsimtrace.xz

Region of Interest Statistics

CPU 0 cumulative IPC: 0.562154 instructions: 100000000 cycles: 177887356
CPU 0 Branch Prediction Accuracy: 83.9656% MPKI: 32.2638 Average ROB Occupancy at Mispredict: 12.3327
Branch type MPKI
BRANCH_DIRECT_JUMP: 0.831981
BRANCH_INDIRECT: 16.9722
BRANCH_CONDITIONAL: 10.7476
BRANCH_DIRECT_CALL: 1.50648
BRANCH_INDIRECT_CALL: 1.05263
BRANCH_RETURN: 1.15294

Instructions large pages: 0
Instructions small pages: 1649
Large page distribution for instructions: 0%

Data large pages: 0
Data small pages: 6640
Large page distribution for data: 0%

cpu0_L1I TOTAL       ACCESS:   30071671  HIT:   24835225  MISS:    5236446  iACCESS:   30071671  iHIT:   24835225  iMISS:    5236446  dACCESS:          0  dHIT:          0  dMISS:          0  itACCESS:          0  itHIT:          0  itMISS:          0  dtACCESS:          0  dtHIT:          0  dtMISS:          0
cpu0_L1I LOAD         ACCESS:    6396413  HIT:    4936842  MISS:    1459571  iACCESS:    6396413  iHIT:    4936842  iMISS:    1459571  dACCESS:          0  dHIT:          0  dMISS:          0  itACCESS:          0  itHIT:          0  itMISS:          0  dtACCESS:          0  dtHIT:          0  dtMISS:          0
cpu0_L1I RFO          ACCESS:          0  HIT:          0  MISS:          0  iACCESS:          0  iHIT:          0  iMISS:          0  dACCESS:          0  dHIT:          0  dMISS:          0  itACCESS:          0  itHIT:          0  itMISS:          0  dtACCESS:          0  dtHIT:          0  dtMISS:          0
cpu0_L1I PREFETCH     ACCESS:   23675258  HIT:   19898383  MISS:    3776875  iACCESS:   23675258  iHIT:   19898383  iMISS:    3776875  dACCESS:          0  dHIT:          0  dMISS:          0  itACCESS:          0  itHIT:          0  itMISS:          0  dtACCESS:          0  dtHIT:          0  dtMISS:          0
cpu0_L1I WRITE        ACCESS:          0  HIT:          0  MISS:          0  iACCESS:          0  iHIT:          0  iMISS:          0  dACCESS:          0  dHIT:          0  dMISS:          0  itACCESS:          0  itHIT:          0  itMISS:          0  dtACCESS:          0  dtHIT:          0  dtMISS:          0
cpu0_L1I TRANSLATION  ACCESS:          0  HIT:          0  MISS:          0  iACCESS:          0  iHIT:          0  iMISS:          0  dACCESS:          0  dHIT:          0  dMISS:          0  itACCESS:          0  itHIT:          0  itMISS:          0  dtACCESS:          0  dtHIT:          0  dtMISS:          0
cpu0_L1I PREFETCH  REQUESTED:   24985040  ISSUED:   24984889  CROSSED:          0  USEFUL:    1265856  USELESS:     480056
cpu0_L1I AVERAGE iMISS LATENCY: 22.1336 cycles
cpu0_L1I AVERAGE dMISS LATENCY: 0 cycles
cpu0_L1I AVERAGE itMISS LATENCY: 0 cycles
cpu0_L1I AVERAGE dtMISS LATENCY: 0 cycles
cpu0_L1I PAGE CROSSINGS (TLB HIT):         0 
cpu0_L1I PAGE CROSSINGS (TLB MISS):         0 
cpu0_L1I AVERAGE MISS LATENCY: 22.1336 cycles
cpu0_ITLB TOTAL       ACCESS:   25911540  HIT:   24649814  MISS:    1261726  iACCESS:   25911540  iHIT:   24649814  iMISS:    1261726  dACCESS:          0  dHIT:          0  dMISS:          0  itACCESS:          0  itHIT:          0  itMISS:          0  dtACCESS:          0  dtHIT:          0  dtMISS:          0
cpu0_ITLB LOAD         ACCESS:   25911540  HIT:   24649814  MISS:    1261726  iACCESS:   25911540  iHIT:   24649814  iMISS:    1261726  dACCESS:          0  dHIT:          0  dMISS:          0  itACCESS:          0  itHIT:          0  itMISS:          0  dtACCESS:          0  dtHIT:          0  dtMISS:          0
cpu0_ITLB RFO          ACCESS:          0  HIT:          0  MISS:          0  iACCESS:          0  iHIT:          0  iMISS:          0  dACCESS:          0  dHIT:          0  dMISS:          0  itACCESS:          0  itHIT:          0  itMISS:          0  dtACCESS:          0  dtHIT:          0  dtMISS:          0
cpu0_ITLB PREFETCH     ACCESS:          0  HIT:          0  MISS:          0  iACCESS:          0  iHIT:          0  iMISS:          0  dACCESS:          0  dHIT:          0  dMISS:          0  itACCESS:          0  itHIT:          0  itMISS:          0  dtACCESS:          0  dtHIT:          0  dtMISS:          0
cpu0_ITLB WRITE        ACCESS:          0  HIT:          0  MISS:          0  iACCESS:          0  iHIT:          0  iMISS:          0  dACCESS:          0  dHIT:          0  dMISS:          0  itACCESS:          0  itHIT:          0  itMISS:          0  dtACCESS:          0  dtHIT:          0  dtMISS:          0
cpu0_ITLB TRANSLATION  ACCESS:          0  HIT:          0  MISS:          0  iACCESS:          0  iHIT:          0  iMISS:          0  dACCESS:          0  dHIT:          0  dMISS:          0  itACCESS:          0  itHIT:          0  itMISS:          0  dtACCESS:          0  dtHIT:          0  dtMISS:          0
cpu0_ITLB PREFETCH  REQUESTED:          0  ISSUED:          0  CROSSED:          0  USEFUL:     217182  USELESS:      43139
cpu0_ITLB AVERAGE iMISS LATENCY: 7.50071 cycles
cpu0_ITLB AVERAGE dMISS LATENCY: 0 cycles
cpu0_ITLB AVERAGE itMISS LATENCY: 0 cycles
cpu0_ITLB AVERAGE dtMISS LATENCY: 0 cycles
cpu0_ITLB PAGE CROSSINGS (TLB HIT):         0 
cpu0_ITLB PAGE CROSSINGS (TLB MISS):         0 
cpu0_ITLB AVERAGE MISS LATENCY: 7.50071 cycles
cpu0_DTLB TOTAL       ACCESS:   32552660  HIT:   27273156  MISS:    5279504  iACCESS:          0  iHIT:          0  iMISS:          0  dACCESS:   32552660  dHIT:   27273156  dMISS:    5279504  itACCESS:          0  itHIT:          0  itMISS:          0  dtACCESS:          0  dtHIT:          0  dtMISS:          0
cpu0_DTLB LOAD         ACCESS:   32552660  HIT:   27273156  MISS:    5279504  iACCESS:          0  iHIT:          0  iMISS:          0  dACCESS:   32552660  dHIT:   27273156  dMISS:    5279504  itACCESS:          0  itHIT:          0  itMISS:          0  dtACCESS:          0  dtHIT:          0  dtMISS:          0
cpu0_DTLB RFO          ACCESS:          0  HIT:          0  MISS:          0  iACCESS:          0  iHIT:          0  iMISS:          0  dACCESS:          0  dHIT:          0  dMISS:          0  itACCESS:          0  itHIT:          0  itMISS:          0  dtACCESS:          0  dtHIT:          0  dtMISS:          0
cpu0_DTLB PREFETCH     ACCESS:          0  HIT:          0  MISS:          0  iACCESS:          0  iHIT:          0  iMISS:          0  dACCESS:          0  dHIT:          0  dMISS:          0  itACCESS:          0  itHIT:          0  itMISS:          0  dtACCESS:          0  dtHIT:          0  dtMISS:          0
cpu0_DTLB WRITE        ACCESS:          0  HIT:          0  MISS:          0  iACCESS:          0  iHIT:          0  iMISS:          0  dACCESS:          0  dHIT:          0  dMISS:          0  itACCESS:          0  itHIT:          0  itMISS:          0  dtACCESS:          0  dtHIT:          0  dtMISS:          0
cpu0_DTLB TRANSLATION  ACCESS:          0  HIT:          0  MISS:          0  iACCESS:          0  iHIT:          0  iMISS:          0  dACCESS:          0  dHIT:          0  dMISS:          0  itACCESS:          0  itHIT:          0  itMISS:          0  dtACCESS:          0  dtHIT:          0  dtMISS:          0
cpu0_DTLB PREFETCH  REQUESTED:          0  ISSUED:          0  CROSSED:          0  USEFUL:          0  USELESS:          0
cpu0_DTLB AVERAGE iMISS LATENCY: 0 cycles
cpu0_DTLB AVERAGE dMISS LATENCY: 8.13243 cycles
cpu0_DTLB AVERAGE itMISS LATENCY: 0 cycles
cpu0_DTLB AVERAGE dtMISS LATENCY: 0 cycles
cpu0_DTLB PAGE CROSSINGS (TLB HIT):         0 
cpu0_DTLB PAGE CROSSINGS (TLB MISS):         0 
cpu0_DTLB AVERAGE MISS LATENCY: 8.13243 cycles
cpu0_STLB TOTAL       ACCESS:    2924729  HIT:    2746233  MISS:     178496  iACCESS:     260324  iHIT:     200014  iMISS:      60310  dACCESS:    2664405  dHIT:    2546219  dMISS:     118186  itACCESS:          0  itHIT:          0  itMISS:          0  dtACCESS:          0  dtHIT:          0  dtMISS:          0
cpu0_STLB LOAD         ACCESS:    2924729  HIT:    2746233  MISS:     178496  iACCESS:     260324  iHIT:     200014  iMISS:      60310  dACCESS:    2664405  dHIT:    2546219  dMISS:     118186  itACCESS:          0  itHIT:          0  itMISS:          0  dtACCESS:          0  dtHIT:          0  dtMISS:          0
cpu0_STLB RFO          ACCESS:          0  HIT:          0  MISS:          0  iACCESS:          0  iHIT:          0  iMISS:          0  dACCESS:          0  dHIT:          0  dMISS:          0  itACCESS:          0  itHIT:          0  itMISS:          0  dtACCESS:          0  dtHIT:          0  dtMISS:          0
cpu0_STLB PREFETCH     ACCESS:          0  HIT:          0  MISS:          0  iACCESS:          0  iHIT:          0  iMISS:          0  dACCESS:          0  dHIT:          0  dMISS:          0  itACCESS:          0  itHIT:          0  itMISS:          0  dtACCESS:          0  dtHIT:          0  dtMISS:          0
cpu0_STLB WRITE        ACCESS:          0  HIT:          0  MISS:          0  iACCESS:          0  iHIT:          0  iMISS:          0  dACCESS:          0  dHIT:          0  dMISS:          0  itACCESS:          0  itHIT:          0  itMISS:          0  dtACCESS:          0  dtHIT:          0  dtMISS:          0
cpu0_STLB TRANSLATION  ACCESS:          0  HIT:          0  MISS:          0  iACCESS:          0  iHIT:          0  iMISS:          0  dACCESS:          0  dHIT:          0  dMISS:          0  itACCESS:          0  itHIT:          0  itMISS:          0  dtACCESS:          0  dtHIT:          0  dtMISS:          0
cpu0_STLB PREFETCH  REQUESTED:          0  ISSUED:          0  CROSSED:          0  USEFUL:          0  USELESS:          0
cpu0_STLB AVERAGE iMISS LATENCY: 41.3696 cycles
cpu0_STLB AVERAGE dMISS LATENCY: 119.278 cycles
cpu0_STLB AVERAGE itMISS LATENCY: 0 cycles
cpu0_STLB AVERAGE dtMISS LATENCY: 0 cycles
cpu0_STLB PAGE CROSSINGS (TLB HIT):         0 
cpu0_STLB PAGE CROSSINGS (TLB MISS):         0 
cpu0_STLB AVERAGE MISS LATENCY: 160.647 cycles
cpu0_L1D TOTAL       ACCESS:   49610203  HIT:   41656918  MISS:    7953285  iACCESS:          0  iHIT:          0  iMISS:          0  dACCESS:   49373033  dHIT:   41638692  dMISS:    7734341  itACCESS:      67555  itHIT:       8762  itMISS:      58793  dtACCESS:     169615  dtHIT:       9464  dtMISS:     160151
cpu0_L1D LOAD         ACCESS:   25145329  HIT:   20273424  MISS:    4871905  iACCESS:          0  iHIT:          0  iMISS:          0  dACCESS:   25145329  dHIT:   20273424  dMISS:    4871905  itACCESS:          0  itHIT:          0  itMISS:          0  dtACCESS:          0  dtHIT:          0  dtMISS:          0
cpu0_L1D RFO          ACCESS:          0  HIT:          0  MISS:          0  iACCESS:          0  iHIT:          0  iMISS:          0  dACCESS:          0  dHIT:          0  dMISS:          0  itACCESS:          0  itHIT:          0  itMISS:          0  dtACCESS:          0  dtHIT:          0  dtMISS:          0
cpu0_L1D PREFETCH     ACCESS:   14612928  HIT:   12318248  MISS:    2294680  iACCESS:          0  iHIT:          0  iMISS:          0  dACCESS:   14612928  dHIT:   12318248  dMISS:    2294680  itACCESS:          0  itHIT:          0  itMISS:          0  dtACCESS:          0  dtHIT:          0  dtMISS:          0
cpu0_L1D WRITE        ACCESS:    9614776  HIT:    9047020  MISS:     567756  iACCESS:          0  iHIT:          0  iMISS:          0  dACCESS:    9614776  dHIT:    9047020  dMISS:     567756  itACCESS:          0  itHIT:          0  itMISS:          0  dtACCESS:          0  dtHIT:          0  dtMISS:          0
cpu0_L1D TRANSLATION  ACCESS:     237170  HIT:      18226  MISS:     218944  iACCESS:          0  iHIT:          0  iMISS:          0  dACCESS:          0  dHIT:          0  dMISS:          0  itACCESS:      67555  itHIT:       8762  itMISS:      58793  dtACCESS:     169615  dtHIT:       9464  dtMISS:     160151
cpu0_L1D PREFETCH  REQUESTED:   25145329  ISSUED:   19229220  CROSSED:          0  USEFUL:     260160  USELESS:     731944
cpu0_L1D AVERAGE iMISS LATENCY: 0 cycles
cpu0_L1D AVERAGE dMISS LATENCY: 25.7619 cycles
cpu0_L1D AVERAGE itMISS LATENCY: 0.850445 cycles
cpu0_L1D AVERAGE dtMISS LATENCY: 2.44101 cycles
cpu0_L1D PAGE CROSSINGS (TLB HIT):         0 
cpu0_L1D PAGE CROSSINGS (TLB MISS):         0 
cpu0_L1D AVERAGE MISS LATENCY: 29.0534 cycles
cpu0_L2C TOTAL       ACCESS:    8008952  HIT:    4292738  MISS:    3716214  iACCESS:    2238933  iHIT:    1061720  iMISS:    1177213  dACCESS:    5570636  dHIT:    3168545  dMISS:    2402091  itACCESS:      56502  itHIT:      18343  itMISS:      38159  dtACCESS:     142881  dtHIT:      44130  dtMISS:      98751
cpu0_L2C LOAD         ACCESS:    3893469  HIT:    2522790  MISS:    1370679  iACCESS:     511906  iHIT:     245970  iMISS:     265936  dACCESS:    3381563  dHIT:    2276820  dMISS:    1104743  itACCESS:          0  itHIT:          0  itMISS:          0  dtACCESS:          0  dtHIT:          0  dtMISS:          0
cpu0_L2C RFO          ACCESS:     170877  HIT:      59118  MISS:     111759  iACCESS:          0  iHIT:          0  iMISS:          0  dACCESS:     170877  dHIT:      59118  dMISS:     111759  itACCESS:          0  itHIT:          0  itMISS:          0  dtACCESS:          0  dtHIT:          0  dtMISS:          0
cpu0_L2C PREFETCH     ACCESS:    3520838  HIT:    1487506  MISS:    2033332  iACCESS:    1727027  iHIT:     815750  iMISS:     911277  dACCESS:    1793811  dHIT:     671756  dMISS:    1122055  itACCESS:          0  itHIT:          0  itMISS:          0  dtACCESS:          0  dtHIT:          0  dtMISS:          0
cpu0_L2C WRITE        ACCESS:     224385  HIT:     160851  MISS:      63534  iACCESS:          0  iHIT:          0  iMISS:          0  dACCESS:     224385  dHIT:     160851  dMISS:      63534  itACCESS:          0  itHIT:          0  itMISS:          0  dtACCESS:          0  dtHIT:          0  dtMISS:          0
cpu0_L2C TRANSLATION  ACCESS:     199383  HIT:      62473  MISS:     136910  iACCESS:          0  iHIT:          0  iMISS:          0  dACCESS:          0  dHIT:          0  dMISS:          0  itACCESS:      56502  itHIT:      18343  itMISS:      38159  dtACCESS:     142881  dtHIT:      44130  dtMISS:      98751
cpu0_L2C PREFETCH  REQUESTED:     935210  ISSUED:     935065  CROSSED:          0  USEFUL:     215086  USELESS:     230436
cpu0_L2C AVERAGE iMISS LATENCY: 25.983 cycles
cpu0_L2C AVERAGE dMISS LATENCY: 55.4441 cycles
cpu0_L2C AVERAGE itMISS LATENCY: 1.67254 cycles
cpu0_L2C AVERAGE dtMISS LATENCY: 4.84981 cycles
cpu0_L2C PAGE CROSSINGS (TLB HIT):         0 
cpu0_L2C PAGE CROSSINGS (TLB MISS):         0 
cpu0_L2C AVERAGE MISS LATENCY: 87.9494 cycles
LLC TOTAL       ACCESS:    3687085  HIT:    2123297  MISS:    1563788  iACCESS:    1130454  iHIT:     637704  iMISS:     492750  dACCESS:    2419721  dHIT:    1463936  dMISS:     955785  itACCESS:      38159  itHIT:       6846  itMISS:      31313  dtACCESS:      98751  dtHIT:      14811  dtMISS:      83940
LLC LOAD         ACCESS:    1365271  HIT:     978559  MISS:     386712  iACCESS:     265189  iHIT:     163557  iMISS:     101632  dACCESS:    1100082  dHIT:     815002  dMISS:     285080  itACCESS:          0  itHIT:          0  itMISS:          0  dtACCESS:          0  dtHIT:          0  dtMISS:          0
LLC RFO          ACCESS:     111756  HIT:      49401  MISS:      62355  iACCESS:          0  iHIT:          0  iMISS:          0  dACCESS:     111756  dHIT:      49401  dMISS:      62355  itACCESS:          0  itHIT:          0  itMISS:          0  dtACCESS:          0  dtHIT:          0  dtMISS:          0
LLC PREFETCH     ACCESS:    1919867  HIT:     924205  MISS:     995662  iACCESS:     865265  iHIT:     474147  iMISS:     391118  dACCESS:    1054602  dHIT:     450058  dMISS:     604544  itACCESS:          0  itHIT:          0  itMISS:          0  dtACCESS:          0  dtHIT:          0  dtMISS:          0
LLC WRITE        ACCESS:     153281  HIT:     149475  MISS:       3806  iACCESS:          0  iHIT:          0  iMISS:          0  dACCESS:     153281  dHIT:     149475  dMISS:       3806  itACCESS:          0  itHIT:          0  itMISS:          0  dtACCESS:          0  dtHIT:          0  dtMISS:          0
LLC TRANSLATION  ACCESS:     136910  HIT:      21657  MISS:     115253  iACCESS:          0  iHIT:          0  iMISS:          0  dACCESS:          0  dHIT:          0  dMISS:          0  itACCESS:      38159  itHIT:       6846  itMISS:      31313  dtACCESS:      98751  dtHIT:      14811  dtMISS:      83940
LLC PREFETCH  REQUESTED:          0  ISSUED:          0  CROSSED:          0  USEFUL:          0  USELESS:          0
LLC AVERAGE iMISS LATENCY: 47.6364 cycles
LLC AVERAGE dMISS LATENCY: 104.523 cycles
LLC AVERAGE itMISS LATENCY: 3.49266 cycles
LLC AVERAGE dtMISS LATENCY: 10.2796 cycles
LLC PAGE CROSSINGS (TLB HIT):         0 
LLC PAGE CROSSINGS (TLB MISS):         0 
LLC AVERAGE MISS LATENCY: 165.932 cycles

PageTableWalker TOTAL       ACCESS:      87195  
PageTableWalker AVERAGE LATENCY: 4.22766 cycles
PageTableWalker TOTAL LATENCY: 368630 cycles

DRAM Statistics
Channel 0
 RQ ROW_BUFFER_HIT:     420366
  ROW_BUFFER_MISS:    1127218
 AVG DBUS CONGESTED CYCLE:    3.65236
 WQ ROW_BUFFER_HIT:      37120
  ROW_BUFFER_MISS:      37780  FULL:          0

