last_page:0x200000000000000
VMEM_RES_CAP:0x100000
PAGE_SIZE:4096
LOG2_PAGE_SIZE:12
LOG2_PAGE_TABLE_SIZE:9
page_table_levels:5
WARNING: physical memory size is smaller than virtual memory size
FDiP enabled with aggresivity 16

*** ChampSim Multicore Out-of-Order Simulator ***

Warmup Instructions: 50000000
Simulation Instructions: 100000000
Number of CPUs: 1
Small page size: 4096
Large page size: 2097152

CPU 0 Bimodal branch predictor
Basic BTB sets: 1024 ways: 8 indirect buffer size: 4096 RAS size: 64
Instruction page size distrubution: 0
Loading instruction page size distribution from /home/bsc/bsc018186/scratch/itp_asplos25_AE/dump/srv768_ap.pdst
Data page size distrubution: 0
Loading data page size distribution from /home/bsc/bsc018186/scratch/itp_asplos25_AE/dump/srv768_ap.pdst
cpu0_L2C IP-based stride prefetcher
cpu0_L2C is using PTP replacement policy:
	TLB_STRESS_THRESHOLD:0
	PTE_EVICTION_RATIO:0
cpu0_L1D next line prefetcher
CHiRPing...
cpu0_L1I next line prefetcher
Off-chip DRAM Size: 4 GiB Channels: 1 Width: 64-bit Data Rate: 3200 MT/s
Heartbeat CPU 0 instructions: 10000002 cycles: 2500180 heartbeat IPC: 3.99972 cumulative IPC: 3.99972 (Simulation time: 0 hr 0 min 37 sec) 
Heartbeat CPU 0 instructions: 20000002 cycles: 5000180 heartbeat IPC: 4 cumulative IPC: 3.99986 (Simulation time: 0 hr 1 min 17 sec) 
Heartbeat CPU 0 instructions: 30000002 cycles: 7500180 heartbeat IPC: 4 cumulative IPC: 3.99991 (Simulation time: 0 hr 1 min 57 sec) 
Heartbeat CPU 0 instructions: 40000003 cycles: 10000234 heartbeat IPC: 3.99992 cumulative IPC: 3.99991 (Simulation time: 0 hr 2 min 37 sec) 
Heartbeat CPU 0 instructions: 50000001 cycles: 12500263 heartbeat IPC: 3.99996 cumulative IPC: 3.99992 (Simulation time: 0 hr 3 min 18 sec) 
Warmup finished CPU 0 instructions: 50000001 cycles: 12500264 cumulative IPC: 3.99992 (Simulation time: 0 hr 3 min 18 sec) 

Warmup complete CPU 0 instructions: 50000001 cycles: 12500264 (Simulation time: 0 hr 3 min 18 sec) 

Heartbeat CPU 0 instructions: 60000002 cycles: 27519381 heartbeat IPC: 0.665819 cumulative IPC: 0.665819 (Simulation time: 0 hr 4 min 22 sec) 
Heartbeat CPU 0 instructions: 70000001 cycles: 43094642 heartbeat IPC: 0.642044 cumulative IPC: 0.653715 (Simulation time: 0 hr 5 min 27 sec) 
Heartbeat CPU 0 instructions: 80000003 cycles: 59250141 heartbeat IPC: 0.618985 cumulative IPC: 0.641713 (Simulation time: 0 hr 6 min 33 sec) 
Heartbeat CPU 0 instructions: 90000001 cycles: 75881512 heartbeat IPC: 0.601274 cumulative IPC: 0.631102 (Simulation time: 0 hr 7 min 40 sec) 
Heartbeat CPU 0 instructions: 100000004 cycles: 91172414 heartbeat IPC: 0.653984 cumulative IPC: 0.635549 (Simulation time: 0 hr 8 min 45 sec) 
*** Reached end of trace: /gpfs/projects/bsc18/MN4/bsc18/romol/ChampSim/traces/qualcomm_srv/srv768_ap.champsimtrace.xz
Heartbeat CPU 0 instructions: 110000003 cycles: 105727936 heartbeat IPC: 0.687025 cumulative IPC: 0.643586 (Simulation time: 0 hr 9 min 48 sec) 
Heartbeat CPU 0 instructions: 120000003 cycles: 120164671 heartbeat IPC: 0.692678 cumulative IPC: 0.650169 (Simulation time: 0 hr 10 min 53 sec) 
Heartbeat CPU 0 instructions: 130000001 cycles: 136270815 heartbeat IPC: 0.620881 cumulative IPC: 0.646358 (Simulation time: 0 hr 11 min 59 sec) 
Heartbeat CPU 0 instructions: 140000000 cycles: 150874120 heartbeat IPC: 0.684777 cumulative IPC: 0.650412 (Simulation time: 0 hr 13 min 3 sec) 
Heartbeat CPU 0 instructions: 150000004 cycles: 166739729 heartbeat IPC: 0.630295 cumulative IPC: 0.648343 (Simulation time: 0 hr 14 min 9 sec) 
Simulation finished CPU 0 instructions: 100000003 cycles: 154239466 cumulative IPC: 0.648343 (Simulation time: 0 hr 14 min 9 sec) 

Simulation complete CPU 0 instructions: 100000003 cycles: 154239466 (Simulation time: 0 hr 14 min 9 sec) 


ChampSim completed all CPUs

Saving instructions large page distribution to /home/bsc/bsc018186/scratch/itp_asplos25_AE/dump/srv768_ap.pdst...
Saving data large page distribution to /home/bsc/bsc018186/scratch/itp_asplos25_AE/dump/srv768_ap.pdst...
=== Simulation ===
CPU 0 runs /gpfs/projects/bsc18/MN4/bsc18/romol/ChampSim/traces/qualcomm_srv/srv768_ap.champsimtrace.xz

Region of Interest Statistics

CPU 0 cumulative IPC: 0.648343 instructions: 100000003 cycles: 154239466
CPU 0 Branch Prediction Accuracy: 82.6658% MPKI: 31.0785 Average ROB Occupancy at Mispredict: 13.0912
Branch type MPKI
BRANCH_DIRECT_JUMP: 1.0394
BRANCH_INDIRECT: 16.0821
BRANCH_CONDITIONAL: 10.2179
BRANCH_DIRECT_CALL: 1.87843
BRANCH_INDIRECT_CALL: 0.51424
BRANCH_RETURN: 1.34649

Instructions large pages: 0
Instructions small pages: 10505
Large page distribution for instructions: 0%

Data large pages: 0
Data small pages: 9554
Large page distribution for data: 0%

cpu0_L1I TOTAL       ACCESS:   35189002  HIT:   27315077  MISS:    7873925  iACCESS:   35189002  iHIT:   27315077  iMISS:    7873925  dACCESS:          0  dHIT:          0  dMISS:          0  itACCESS:          0  itHIT:          0  itMISS:          0  dtACCESS:          0  dtHIT:          0  dtMISS:          0
cpu0_L1I LOAD         ACCESS:   10317680  HIT:    8105058  MISS:    2212622  iACCESS:   10317680  iHIT:    8105058  iMISS:    2212622  dACCESS:          0  dHIT:          0  dMISS:          0  itACCESS:          0  itHIT:          0  itMISS:          0  dtACCESS:          0  dtHIT:          0  dtMISS:          0
cpu0_L1I RFO          ACCESS:          0  HIT:          0  MISS:          0  iACCESS:          0  iHIT:          0  iMISS:          0  dACCESS:          0  dHIT:          0  dMISS:          0  itACCESS:          0  itHIT:          0  itMISS:          0  dtACCESS:          0  dtHIT:          0  dtMISS:          0
cpu0_L1I PREFETCH     ACCESS:   24871322  HIT:   19210019  MISS:    5661303  iACCESS:   24871322  iHIT:   19210019  iMISS:    5661303  dACCESS:          0  dHIT:          0  dMISS:          0  itACCESS:          0  itHIT:          0  itMISS:          0  dtACCESS:          0  dtHIT:          0  dtMISS:          0
cpu0_L1I WRITE        ACCESS:          0  HIT:          0  MISS:          0  iACCESS:          0  iHIT:          0  iMISS:          0  dACCESS:          0  dHIT:          0  dMISS:          0  itACCESS:          0  itHIT:          0  itMISS:          0  dtACCESS:          0  dtHIT:          0  dtMISS:          0
cpu0_L1I TRANSLATION  ACCESS:          0  HIT:          0  MISS:          0  iACCESS:          0  iHIT:          0  iMISS:          0  dACCESS:          0  dHIT:          0  dMISS:          0  itACCESS:          0  itHIT:          0  itMISS:          0  dtACCESS:          0  dtHIT:          0  dtMISS:          0
cpu0_L1I PREFETCH  REQUESTED:   27403568  ISSUED:   27403568  CROSSED:          0  USEFUL:    1937730  USELESS:     631344
cpu0_L1I AVERAGE iMISS LATENCY: 12.7311 cycles
cpu0_L1I AVERAGE dMISS LATENCY: 0 cycles
cpu0_L1I AVERAGE itMISS LATENCY: 0 cycles
cpu0_L1I AVERAGE dtMISS LATENCY: 0 cycles
cpu0_L1I PAGE CROSSINGS (TLB HIT):         0 
cpu0_L1I PAGE CROSSINGS (TLB MISS):         0 
cpu0_L1I AVERAGE MISS LATENCY: 12.7311 cycles
cpu0_ITLB TOTAL       ACCESS:   29379940  HIT:   27426063  MISS:    1953877  iACCESS:   29379940  iHIT:   27426063  iMISS:    1953877  dACCESS:          0  dHIT:          0  dMISS:          0  itACCESS:          0  itHIT:          0  itMISS:          0  dtACCESS:          0  dtHIT:          0  dtMISS:          0
cpu0_ITLB LOAD         ACCESS:   29379940  HIT:   27426063  MISS:    1953877  iACCESS:   29379940  iHIT:   27426063  iMISS:    1953877  dACCESS:          0  dHIT:          0  dMISS:          0  itACCESS:          0  itHIT:          0  itMISS:          0  dtACCESS:          0  dtHIT:          0  dtMISS:          0
cpu0_ITLB RFO          ACCESS:          0  HIT:          0  MISS:          0  iACCESS:          0  iHIT:          0  iMISS:          0  dACCESS:          0  dHIT:          0  dMISS:          0  itACCESS:          0  itHIT:          0  itMISS:          0  dtACCESS:          0  dtHIT:          0  dtMISS:          0
cpu0_ITLB PREFETCH     ACCESS:          0  HIT:          0  MISS:          0  iACCESS:          0  iHIT:          0  iMISS:          0  dACCESS:          0  dHIT:          0  dMISS:          0  itACCESS:          0  itHIT:          0  itMISS:          0  dtACCESS:          0  dtHIT:          0  dtMISS:          0
cpu0_ITLB WRITE        ACCESS:          0  HIT:          0  MISS:          0  iACCESS:          0  iHIT:          0  iMISS:          0  dACCESS:          0  dHIT:          0  dMISS:          0  itACCESS:          0  itHIT:          0  itMISS:          0  dtACCESS:          0  dtHIT:          0  dtMISS:          0
cpu0_ITLB TRANSLATION  ACCESS:          0  HIT:          0  MISS:          0  iACCESS:          0  iHIT:          0  iMISS:          0  dACCESS:          0  dHIT:          0  dMISS:          0  itACCESS:          0  itHIT:          0  itMISS:          0  dtACCESS:          0  dtHIT:          0  dtMISS:          0
cpu0_ITLB PREFETCH  REQUESTED:          0  ISSUED:          0  CROSSED:          0  USEFUL:     317496  USELESS:      64788
cpu0_ITLB AVERAGE iMISS LATENCY: 5.16692 cycles
cpu0_ITLB AVERAGE dMISS LATENCY: 0 cycles
cpu0_ITLB AVERAGE itMISS LATENCY: 0 cycles
cpu0_ITLB AVERAGE dtMISS LATENCY: 0 cycles
cpu0_ITLB PAGE CROSSINGS (TLB HIT):         0 
cpu0_ITLB PAGE CROSSINGS (TLB MISS):         0 
cpu0_ITLB AVERAGE MISS LATENCY: 5.16692 cycles
cpu0_DTLB TOTAL       ACCESS:   27902848  HIT:   25934745  MISS:    1968103  iACCESS:          0  iHIT:          0  iMISS:          0  dACCESS:   27902848  dHIT:   25934745  dMISS:    1968103  itACCESS:          0  itHIT:          0  itMISS:          0  dtACCESS:          0  dtHIT:          0  dtMISS:          0
cpu0_DTLB LOAD         ACCESS:   27902848  HIT:   25934745  MISS:    1968103  iACCESS:          0  iHIT:          0  iMISS:          0  dACCESS:   27902848  dHIT:   25934745  dMISS:    1968103  itACCESS:          0  itHIT:          0  itMISS:          0  dtACCESS:          0  dtHIT:          0  dtMISS:          0
cpu0_DTLB RFO          ACCESS:          0  HIT:          0  MISS:          0  iACCESS:          0  iHIT:          0  iMISS:          0  dACCESS:          0  dHIT:          0  dMISS:          0  itACCESS:          0  itHIT:          0  itMISS:          0  dtACCESS:          0  dtHIT:          0  dtMISS:          0
cpu0_DTLB PREFETCH     ACCESS:          0  HIT:          0  MISS:          0  iACCESS:          0  iHIT:          0  iMISS:          0  dACCESS:          0  dHIT:          0  dMISS:          0  itACCESS:          0  itHIT:          0  itMISS:          0  dtACCESS:          0  dtHIT:          0  dtMISS:          0
cpu0_DTLB WRITE        ACCESS:          0  HIT:          0  MISS:          0  iACCESS:          0  iHIT:          0  iMISS:          0  dACCESS:          0  dHIT:          0  dMISS:          0  itACCESS:          0  itHIT:          0  itMISS:          0  dtACCESS:          0  dtHIT:          0  dtMISS:          0
cpu0_DTLB TRANSLATION  ACCESS:          0  HIT:          0  MISS:          0  iACCESS:          0  iHIT:          0  iMISS:          0  dACCESS:          0  dHIT:          0  dMISS:          0  itACCESS:          0  itHIT:          0  itMISS:          0  dtACCESS:          0  dtHIT:          0  dtMISS:          0
cpu0_DTLB PREFETCH  REQUESTED:          0  ISSUED:          0  CROSSED:          0  USEFUL:          0  USELESS:          0
cpu0_DTLB AVERAGE iMISS LATENCY: 0 cycles
cpu0_DTLB AVERAGE dMISS LATENCY: 15.2013 cycles
cpu0_DTLB AVERAGE itMISS LATENCY: 0 cycles
cpu0_DTLB AVERAGE dtMISS LATENCY: 0 cycles
cpu0_DTLB PAGE CROSSINGS (TLB HIT):         0 
cpu0_DTLB PAGE CROSSINGS (TLB MISS):         0 
cpu0_DTLB AVERAGE MISS LATENCY: 15.2013 cycles
cpu0_STLB TOTAL       ACCESS:    1571867  HIT:    1403643  MISS:     168224  iACCESS:     382285  iHIT:     323698  iMISS:      58587  dACCESS:    1189582  dHIT:    1079945  dMISS:     109637  itACCESS:          0  itHIT:          0  itMISS:          0  dtACCESS:          0  dtHIT:          0  dtMISS:          0
cpu0_STLB LOAD         ACCESS:    1571867  HIT:    1403643  MISS:     168224  iACCESS:     382285  iHIT:     323698  iMISS:      58587  dACCESS:    1189582  dHIT:    1079945  dMISS:     109637  itACCESS:          0  itHIT:          0  itMISS:          0  dtACCESS:          0  dtHIT:          0  dtMISS:          0
cpu0_STLB RFO          ACCESS:          0  HIT:          0  MISS:          0  iACCESS:          0  iHIT:          0  iMISS:          0  dACCESS:          0  dHIT:          0  dMISS:          0  itACCESS:          0  itHIT:          0  itMISS:          0  dtACCESS:          0  dtHIT:          0  dtMISS:          0
cpu0_STLB PREFETCH     ACCESS:          0  HIT:          0  MISS:          0  iACCESS:          0  iHIT:          0  iMISS:          0  dACCESS:          0  dHIT:          0  dMISS:          0  itACCESS:          0  itHIT:          0  itMISS:          0  dtACCESS:          0  dtHIT:          0  dtMISS:          0
cpu0_STLB WRITE        ACCESS:          0  HIT:          0  MISS:          0  iACCESS:          0  iHIT:          0  iMISS:          0  dACCESS:          0  dHIT:          0  dMISS:          0  itACCESS:          0  itHIT:          0  itMISS:          0  dtACCESS:          0  dtHIT:          0  dtMISS:          0
cpu0_STLB TRANSLATION  ACCESS:          0  HIT:          0  MISS:          0  iACCESS:          0  iHIT:          0  iMISS:          0  dACCESS:          0  dHIT:          0  dMISS:          0  itACCESS:          0  itHIT:          0  itMISS:          0  dtACCESS:          0  dtHIT:          0  dtMISS:          0
cpu0_STLB PREFETCH  REQUESTED:          0  ISSUED:          0  CROSSED:          0  USEFUL:          0  USELESS:          0
cpu0_STLB AVERAGE iMISS LATENCY: 42.0551 cycles
cpu0_STLB AVERAGE dMISS LATENCY: 121.306 cycles
cpu0_STLB AVERAGE itMISS LATENCY: 0 cycles
cpu0_STLB AVERAGE dtMISS LATENCY: 0 cycles
cpu0_STLB PAGE CROSSINGS (TLB HIT):         0 
cpu0_STLB PAGE CROSSINGS (TLB MISS):         0 
cpu0_STLB AVERAGE MISS LATENCY: 163.361 cycles
cpu0_L1D TOTAL       ACCESS:   41669789  HIT:   38247070  MISS:    3422719  iACCESS:          0  iHIT:          0  iMISS:          0  dACCESS:   41441478  dHIT:   38226917  dMISS:    3214561  itACCESS:      63357  itHIT:       9028  itMISS:      54329  dtACCESS:     164954  dtHIT:      11125  dtMISS:     153829
cpu0_L1D LOAD         ACCESS:   19071357  HIT:   17608445  MISS:    1462912  iACCESS:          0  iHIT:          0  iMISS:          0  dACCESS:   19071357  dHIT:   17608445  dMISS:    1462912  itACCESS:          0  itHIT:          0  itMISS:          0  dtACCESS:          0  dtHIT:          0  dtMISS:          0
cpu0_L1D RFO          ACCESS:          0  HIT:          0  MISS:          0  iACCESS:          0  iHIT:          0  iMISS:          0  dACCESS:          0  dHIT:          0  dMISS:          0  itACCESS:          0  itHIT:          0  itMISS:          0  dtACCESS:          0  dtHIT:          0  dtMISS:          0
cpu0_L1D PREFETCH     ACCESS:   12158425  HIT:   10838818  MISS:    1319607  iACCESS:          0  iHIT:          0  iMISS:          0  dACCESS:   12158425  dHIT:   10838818  dMISS:    1319607  itACCESS:          0  itHIT:          0  itMISS:          0  dtACCESS:          0  dtHIT:          0  dtMISS:          0
cpu0_L1D WRITE        ACCESS:   10211696  HIT:    9779654  MISS:     432042  iACCESS:          0  iHIT:          0  iMISS:          0  dACCESS:   10211696  dHIT:    9779654  dMISS:     432042  itACCESS:          0  itHIT:          0  itMISS:          0  dtACCESS:          0  dtHIT:          0  dtMISS:          0
cpu0_L1D TRANSLATION  ACCESS:     228311  HIT:      20153  MISS:     208158  iACCESS:          0  iHIT:          0  iMISS:          0  dACCESS:          0  dHIT:          0  dMISS:          0  itACCESS:      63357  itHIT:       9028  itMISS:      54329  dtACCESS:     164954  dtHIT:      11125  dtMISS:     153829
cpu0_L1D PREFETCH  REQUESTED:   19071357  ISSUED:   17011661  CROSSED:          0  USEFUL:     307612  USELESS:     700483
cpu0_L1D AVERAGE iMISS LATENCY: 0 cycles
cpu0_L1D AVERAGE dMISS LATENCY: 33.4099 cycles
cpu0_L1D AVERAGE itMISS LATENCY: 1.9203 cycles
cpu0_L1D AVERAGE dtMISS LATENCY: 5.26108 cycles
cpu0_L1D PAGE CROSSINGS (TLB HIT):         0 
cpu0_L1D PAGE CROSSINGS (TLB MISS):         0 
cpu0_L1D AVERAGE MISS LATENCY: 40.5913 cycles
cpu0_L2C TOTAL       ACCESS:    7013473  HIT:    4071169  MISS:    2942304  iACCESS:    3322960  iHIT:    2228393  iMISS:    1094567  dACCESS:    3492226  dHIT:    1814538  dMISS:    1677688  itACCESS:      54329  itHIT:       9839  itMISS:      44490  dtACCESS:     143958  dtHIT:      18399  dtMISS:     125559
cpu0_L2C LOAD         ACCESS:    1722021  HIT:    1037877  MISS:     684144  iACCESS:     794119  iHIT:     561447  iMISS:     232672  dACCESS:     927902  dHIT:     476430  dMISS:     451472  itACCESS:          0  itHIT:          0  itMISS:          0  dtACCESS:          0  dtHIT:          0  dtMISS:          0
cpu0_L2C RFO          ACCESS:     158584  HIT:      73943  MISS:      84641  iACCESS:          0  iHIT:          0  iMISS:          0  dACCESS:     158584  dHIT:      73943  dMISS:      84641  itACCESS:          0  itHIT:          0  itMISS:          0  dtACCESS:          0  dtHIT:          0  dtMISS:          0
cpu0_L2C PREFETCH     ACCESS:    4653277  HIT:    2650816  MISS:    2002461  iACCESS:    2528841  iHIT:    1666946  iMISS:     861895  dACCESS:    2124436  dHIT:     983870  dMISS:    1140566  itACCESS:          0  itHIT:          0  itMISS:          0  dtACCESS:          0  dtHIT:          0  dtMISS:          0
cpu0_L2C WRITE        ACCESS:     281304  HIT:     280295  MISS:       1009  iACCESS:          0  iHIT:          0  iMISS:          0  dACCESS:     281304  dHIT:     280295  dMISS:       1009  itACCESS:          0  itHIT:          0  itMISS:          0  dtACCESS:          0  dtHIT:          0  dtMISS:          0
cpu0_L2C TRANSLATION  ACCESS:     198287  HIT:      28238  MISS:     170049  iACCESS:          0  iHIT:          0  iMISS:          0  dACCESS:          0  dHIT:          0  dMISS:          0  itACCESS:      54329  itHIT:       9839  itMISS:      44490  dtACCESS:     143958  dtHIT:      18399  dtMISS:     125559
cpu0_L2C PREFETCH  REQUESTED:    1378243  ISSUED:    1378243  CROSSED:          0  USEFUL:     328863  USELESS:     230988
cpu0_L2C AVERAGE iMISS LATENCY: 23.7504 cycles
cpu0_L2C AVERAGE dMISS LATENCY: 45.3975 cycles
cpu0_L2C AVERAGE itMISS LATENCY: 2.05205 cycles
cpu0_L2C AVERAGE dtMISS LATENCY: 5.63326 cycles
cpu0_L2C PAGE CROSSINGS (TLB HIT):         0 
cpu0_L2C PAGE CROSSINGS (TLB MISS):         0 
cpu0_L2C AVERAGE MISS LATENCY: 76.8332 cycles
LLC TOTAL       ACCESS:    2970018  HIT:    1884485  MISS:    1085533  iACCESS:    1041181  iHIT:     702789  iMISS:     338392  dACCESS:    1758788  dHIT:    1120123  dMISS:     638665  itACCESS:      44490  itHIT:      14163  itMISS:      30327  dtACCESS:     125559  dtHIT:      47410  dtMISS:      78149
LLC LOAD         ACCESS:     682475  HIT:     444185  MISS:     238290  iACCESS:     231391  iHIT:     156254  iMISS:      75137  dACCESS:     451084  dHIT:     287931  dMISS:     163153  itACCESS:          0  itHIT:          0  itMISS:          0  dtACCESS:          0  dtHIT:          0  dtMISS:          0
LLC RFO          ACCESS:      84618  HIT:      45773  MISS:      38845  iACCESS:          0  iHIT:          0  iMISS:          0  dACCESS:      84618  dHIT:      45773  dMISS:      38845  itACCESS:          0  itHIT:          0  itMISS:          0  dtACCESS:          0  dtHIT:          0  dtMISS:          0
LLC PREFETCH     ACCESS:    1899311  HIT:    1205446  MISS:     693865  iACCESS:     809790  iHIT:     546535  iMISS:     263255  dACCESS:    1089521  dHIT:     658911  dMISS:     430610  itACCESS:          0  itHIT:          0  itMISS:          0  dtACCESS:          0  dtHIT:          0  dtMISS:          0
LLC WRITE        ACCESS:     133565  HIT:     127508  MISS:       6057  iACCESS:          0  iHIT:          0  iMISS:          0  dACCESS:     133565  dHIT:     127508  dMISS:       6057  itACCESS:          0  itHIT:          0  itMISS:          0  dtACCESS:          0  dtHIT:          0  dtMISS:          0
LLC TRANSLATION  ACCESS:     170049  HIT:      61573  MISS:     108476  iACCESS:          0  iHIT:          0  iMISS:          0  dACCESS:          0  dHIT:          0  dMISS:          0  itACCESS:      44490  itHIT:      14163  itMISS:      30327  dtACCESS:     125559  dtHIT:      47410  dtMISS:      78149
LLC PREFETCH  REQUESTED:          0  ISSUED:          0  CROSSED:          0  USEFUL:          0  USELESS:          0
LLC AVERAGE iMISS LATENCY: 45.7368 cycles
LLC AVERAGE dMISS LATENCY: 94.0805 cycles
LLC AVERAGE itMISS LATENCY: 4.75746 cycles
LLC AVERAGE dtMISS LATENCY: 13.0063 cycles
LLC PAGE CROSSINGS (TLB HIT):         0 
LLC PAGE CROSSINGS (TLB MISS):         0 
LLC AVERAGE MISS LATENCY: 157.581 cycles

PageTableWalker TOTAL       ACCESS:      83168  
PageTableWalker AVERAGE LATENCY: 5.21082 cycles
PageTableWalker TOTAL LATENCY: 433373 cycles

DRAM Statistics
Channel 0
 RQ ROW_BUFFER_HIT:     294922
  ROW_BUFFER_MISS:     784504
 AVG DBUS CONGESTED CYCLE:     3.6239
 WQ ROW_BUFFER_HIT:      20608
  ROW_BUFFER_MISS:      20501  FULL:          0

