last_page:0x200000000000000
VMEM_RES_CAP:0x100000
PAGE_SIZE:4096
LOG2_PAGE_SIZE:12
LOG2_PAGE_TABLE_SIZE:9
page_table_levels:5
WARNING: physical memory size is smaller than virtual memory size
FDiP enabled with aggresivity 16

*** ChampSim Multicore Out-of-Order Simulator ***

Warmup Instructions: 50000000
Simulation Instructions: 100000000
Number of CPUs: 1
Small page size: 4096
Large page size: 2097152

CPU 0 Bimodal branch predictor
Basic BTB sets: 1024 ways: 8 indirect buffer size: 4096 RAS size: 64
Instruction page size distrubution: 0
Loading instruction page size distribution from /home/bsc/bsc018186/scratch/itp_asplos25_AE/dump/srv764_ap.pdst
Data page size distrubution: 0
Loading data page size distribution from /home/bsc/bsc018186/scratch/itp_asplos25_AE/dump/srv764_ap.pdst
cpu0_L2C IP-based stride prefetcher
cpu0_L2C is using PTP replacement policy:
	TLB_STRESS_THRESHOLD:0
	PTE_EVICTION_RATIO:0
cpu0_L1D next line prefetcher
cpu0_L1I next line prefetcher
Off-chip DRAM Size: 4 GiB Channels: 1 Width: 64-bit Data Rate: 3200 MT/s
Heartbeat CPU 0 instructions: 10000000 cycles: 2500104 heartbeat IPC: 3.99984 cumulative IPC: 3.99984 (Simulation time: 0 hr 0 min 37 sec) 
Heartbeat CPU 0 instructions: 20000003 cycles: 5000190 heartbeat IPC: 3.99987 cumulative IPC: 3.99985 (Simulation time: 0 hr 1 min 17 sec) 
Heartbeat CPU 0 instructions: 30000000 cycles: 7500261 heartbeat IPC: 3.99989 cumulative IPC: 3.99987 (Simulation time: 0 hr 1 min 57 sec) 
Heartbeat CPU 0 instructions: 40000000 cycles: 10000282 heartbeat IPC: 3.99997 cumulative IPC: 3.99989 (Simulation time: 0 hr 2 min 37 sec) 
Heartbeat CPU 0 instructions: 50000001 cycles: 12886350 heartbeat IPC: 3.46493 cumulative IPC: 3.88008 (Simulation time: 0 hr 3 min 20 sec) 
Warmup finished CPU 0 instructions: 50000001 cycles: 12886351 cumulative IPC: 3.88008 (Simulation time: 0 hr 3 min 20 sec) 

Warmup complete CPU 0 instructions: 50000001 cycles: 12886351 (Simulation time: 0 hr 3 min 20 sec) 

Heartbeat CPU 0 instructions: 60000003 cycles: 26225544 heartbeat IPC: 0.749671 cumulative IPC: 0.749671 (Simulation time: 0 hr 4 min 26 sec) 
Heartbeat CPU 0 instructions: 70000001 cycles: 45465313 heartbeat IPC: 0.519757 cumulative IPC: 0.613894 (Simulation time: 0 hr 5 min 38 sec) 
Heartbeat CPU 0 instructions: 80000001 cycles: 64020083 heartbeat IPC: 0.538945 cumulative IPC: 0.586697 (Simulation time: 0 hr 6 min 50 sec) 
Heartbeat CPU 0 instructions: 90000002 cycles: 82679992 heartbeat IPC: 0.535909 cumulative IPC: 0.573119 (Simulation time: 0 hr 8 min 1 sec) 
Heartbeat CPU 0 instructions: 100000000 cycles: 100951301 heartbeat IPC: 0.547307 cumulative IPC: 0.567763 (Simulation time: 0 hr 9 min 12 sec) 
*** Reached end of trace: /gpfs/projects/bsc18/MN4/bsc18/romol/ChampSim/traces/qualcomm_srv/srv764_ap.champsimtrace.xz
Heartbeat CPU 0 instructions: 110000000 cycles: 118724462 heartbeat IPC: 0.562647 cumulative IPC: 0.566904 (Simulation time: 0 hr 10 min 23 sec) 
Heartbeat CPU 0 instructions: 120000002 cycles: 137218869 heartbeat IPC: 0.540705 cumulative IPC: 0.563007 (Simulation time: 0 hr 11 min 34 sec) 
Heartbeat CPU 0 instructions: 130000000 cycles: 156297643 heartbeat IPC: 0.524143 cumulative IPC: 0.557837 (Simulation time: 0 hr 12 min 46 sec) 
Heartbeat CPU 0 instructions: 140000003 cycles: 175264837 heartbeat IPC: 0.527227 cumulative IPC: 0.554261 (Simulation time: 0 hr 13 min 58 sec) 
Heartbeat CPU 0 instructions: 150000002 cycles: 189850979 heartbeat IPC: 0.685583 cumulative IPC: 0.565085 (Simulation time: 0 hr 15 min 5 sec) 
Simulation finished CPU 0 instructions: 100000001 cycles: 176964629 cumulative IPC: 0.565085 (Simulation time: 0 hr 15 min 5 sec) 

Simulation complete CPU 0 instructions: 100000001 cycles: 176964629 (Simulation time: 0 hr 15 min 5 sec) 


ChampSim completed all CPUs

Saving instructions large page distribution to /home/bsc/bsc018186/scratch/itp_asplos25_AE/dump/srv764_ap.pdst...
Saving data large page distribution to /home/bsc/bsc018186/scratch/itp_asplos25_AE/dump/srv764_ap.pdst...
=== Simulation ===
CPU 0 runs /gpfs/projects/bsc18/MN4/bsc18/romol/ChampSim/traces/qualcomm_srv/srv764_ap.champsimtrace.xz

Region of Interest Statistics

CPU 0 cumulative IPC: 0.565085 instructions: 100000001 cycles: 176964629
CPU 0 Branch Prediction Accuracy: 82.3659% MPKI: 33.5305 Average ROB Occupancy at Mispredict: 11.3623
Branch type MPKI
BRANCH_DIRECT_JUMP: 1.21738
BRANCH_INDIRECT: 16.9293
BRANCH_CONDITIONAL: 10.8073
BRANCH_DIRECT_CALL: 2.28574
BRANCH_INDIRECT_CALL: 0.6881
BRANCH_RETURN: 1.60283

Instructions large pages: 0
Instructions small pages: 5930
Large page distribution for instructions: 0%

Data large pages: 0
Data small pages: 4775
Large page distribution for data: 0%

cpu0_L1I TOTAL       ACCESS:   35182317  HIT:   27422890  MISS:    7759427  iACCESS:   35182317  iHIT:   27422890  iMISS:    7759427  dACCESS:          0  dHIT:          0  dMISS:          0  itACCESS:          0  itHIT:          0  itMISS:          0  dtACCESS:          0  dtHIT:          0  dtMISS:          0
cpu0_L1I LOAD         ACCESS:    9537144  HIT:    7410962  MISS:    2126182  iACCESS:    9537144  iHIT:    7410962  iMISS:    2126182  dACCESS:          0  dHIT:          0  dMISS:          0  itACCESS:          0  itHIT:          0  itMISS:          0  dtACCESS:          0  dtHIT:          0  dtMISS:          0
cpu0_L1I RFO          ACCESS:          0  HIT:          0  MISS:          0  iACCESS:          0  iHIT:          0  iMISS:          0  dACCESS:          0  dHIT:          0  dMISS:          0  itACCESS:          0  itHIT:          0  itMISS:          0  dtACCESS:          0  dtHIT:          0  dtMISS:          0
cpu0_L1I PREFETCH     ACCESS:   25645173  HIT:   20011928  MISS:    5633245  iACCESS:   25645173  iHIT:   20011928  iMISS:    5633245  dACCESS:          0  dHIT:          0  dMISS:          0  itACCESS:          0  itHIT:          0  itMISS:          0  dtACCESS:          0  dtHIT:          0  dtMISS:          0
cpu0_L1I WRITE        ACCESS:          0  HIT:          0  MISS:          0  iACCESS:          0  iHIT:          0  iMISS:          0  dACCESS:          0  dHIT:          0  dMISS:          0  itACCESS:          0  itHIT:          0  itMISS:          0  dtACCESS:          0  dtHIT:          0  dtMISS:          0
cpu0_L1I TRANSLATION  ACCESS:          0  HIT:          0  MISS:          0  iACCESS:          0  iHIT:          0  iMISS:          0  dACCESS:          0  dHIT:          0  dMISS:          0  itACCESS:          0  itHIT:          0  itMISS:          0  dtACCESS:          0  dtHIT:          0  dtMISS:          0
cpu0_L1I PREFETCH  REQUESTED:   27617209  ISSUED:   27615336  CROSSED:          0  USEFUL:    1821469  USELESS:     604578
cpu0_L1I AVERAGE iMISS LATENCY: 19.4704 cycles
cpu0_L1I AVERAGE dMISS LATENCY: 0 cycles
cpu0_L1I AVERAGE itMISS LATENCY: 0 cycles
cpu0_L1I AVERAGE dtMISS LATENCY: 0 cycles
cpu0_L1I PAGE CROSSINGS (TLB HIT):         0 
cpu0_L1I PAGE CROSSINGS (TLB MISS):         0 
cpu0_L1I AVERAGE MISS LATENCY: 19.4704 cycles
cpu0_ITLB TOTAL       ACCESS:   29484676  HIT:   27695860  MISS:    1788816  iACCESS:   29484676  iHIT:   27695860  iMISS:    1788816  dACCESS:          0  dHIT:          0  dMISS:          0  itACCESS:          0  itHIT:          0  itMISS:          0  dtACCESS:          0  dtHIT:          0  dtMISS:          0
cpu0_ITLB LOAD         ACCESS:   29484676  HIT:   27695860  MISS:    1788816  iACCESS:   29484676  iHIT:   27695860  iMISS:    1788816  dACCESS:          0  dHIT:          0  dMISS:          0  itACCESS:          0  itHIT:          0  itMISS:          0  dtACCESS:          0  dtHIT:          0  dtMISS:          0
cpu0_ITLB RFO          ACCESS:          0  HIT:          0  MISS:          0  iACCESS:          0  iHIT:          0  iMISS:          0  dACCESS:          0  dHIT:          0  dMISS:          0  itACCESS:          0  itHIT:          0  itMISS:          0  dtACCESS:          0  dtHIT:          0  dtMISS:          0
cpu0_ITLB PREFETCH     ACCESS:          0  HIT:          0  MISS:          0  iACCESS:          0  iHIT:          0  iMISS:          0  dACCESS:          0  dHIT:          0  dMISS:          0  itACCESS:          0  itHIT:          0  itMISS:          0  dtACCESS:          0  dtHIT:          0  dtMISS:          0
cpu0_ITLB WRITE        ACCESS:          0  HIT:          0  MISS:          0  iACCESS:          0  iHIT:          0  iMISS:          0  dACCESS:          0  dHIT:          0  dMISS:          0  itACCESS:          0  itHIT:          0  itMISS:          0  dtACCESS:          0  dtHIT:          0  dtMISS:          0
cpu0_ITLB TRANSLATION  ACCESS:          0  HIT:          0  MISS:          0  iACCESS:          0  iHIT:          0  iMISS:          0  dACCESS:          0  dHIT:          0  dMISS:          0  itACCESS:          0  itHIT:          0  itMISS:          0  dtACCESS:          0  dtHIT:          0  dtMISS:          0
cpu0_ITLB PREFETCH  REQUESTED:          0  ISSUED:          0  CROSSED:          0  USEFUL:     304771  USELESS:      57098
cpu0_ITLB AVERAGE iMISS LATENCY: 3.77273 cycles
cpu0_ITLB AVERAGE dMISS LATENCY: 0 cycles
cpu0_ITLB AVERAGE itMISS LATENCY: 0 cycles
cpu0_ITLB AVERAGE dtMISS LATENCY: 0 cycles
cpu0_ITLB PAGE CROSSINGS (TLB HIT):         0 
cpu0_ITLB PAGE CROSSINGS (TLB MISS):         0 
cpu0_ITLB AVERAGE MISS LATENCY: 3.77273 cycles
cpu0_DTLB TOTAL       ACCESS:   29313051  HIT:   25811808  MISS:    3501243  iACCESS:          0  iHIT:          0  iMISS:          0  dACCESS:   29313051  dHIT:   25811808  dMISS:    3501243  itACCESS:          0  itHIT:          0  itMISS:          0  dtACCESS:          0  dtHIT:          0  dtMISS:          0
cpu0_DTLB LOAD         ACCESS:   29313051  HIT:   25811808  MISS:    3501243  iACCESS:          0  iHIT:          0  iMISS:          0  dACCESS:   29313051  dHIT:   25811808  dMISS:    3501243  itACCESS:          0  itHIT:          0  itMISS:          0  dtACCESS:          0  dtHIT:          0  dtMISS:          0
cpu0_DTLB RFO          ACCESS:          0  HIT:          0  MISS:          0  iACCESS:          0  iHIT:          0  iMISS:          0  dACCESS:          0  dHIT:          0  dMISS:          0  itACCESS:          0  itHIT:          0  itMISS:          0  dtACCESS:          0  dtHIT:          0  dtMISS:          0
cpu0_DTLB PREFETCH     ACCESS:          0  HIT:          0  MISS:          0  iACCESS:          0  iHIT:          0  iMISS:          0  dACCESS:          0  dHIT:          0  dMISS:          0  itACCESS:          0  itHIT:          0  itMISS:          0  dtACCESS:          0  dtHIT:          0  dtMISS:          0
cpu0_DTLB WRITE        ACCESS:          0  HIT:          0  MISS:          0  iACCESS:          0  iHIT:          0  iMISS:          0  dACCESS:          0  dHIT:          0  dMISS:          0  itACCESS:          0  itHIT:          0  itMISS:          0  dtACCESS:          0  dtHIT:          0  dtMISS:          0
cpu0_DTLB TRANSLATION  ACCESS:          0  HIT:          0  MISS:          0  iACCESS:          0  iHIT:          0  iMISS:          0  dACCESS:          0  dHIT:          0  dMISS:          0  itACCESS:          0  itHIT:          0  itMISS:          0  dtACCESS:          0  dtHIT:          0  dtMISS:          0
cpu0_DTLB PREFETCH  REQUESTED:          0  ISSUED:          0  CROSSED:          0  USEFUL:          0  USELESS:          0
cpu0_DTLB AVERAGE iMISS LATENCY: 0 cycles
cpu0_DTLB AVERAGE dMISS LATENCY: 7.29478 cycles
cpu0_DTLB AVERAGE itMISS LATENCY: 0 cycles
cpu0_DTLB AVERAGE dtMISS LATENCY: 0 cycles
cpu0_DTLB PAGE CROSSINGS (TLB HIT):         0 
cpu0_DTLB PAGE CROSSINGS (TLB MISS):         0 
cpu0_DTLB AVERAGE MISS LATENCY: 7.29478 cycles
cpu0_STLB TOTAL       ACCESS:    2311130  HIT:    2092654  MISS:     218476  iACCESS:     361883  iHIT:     278362  iMISS:      83521  dACCESS:    1949247  dHIT:    1814292  dMISS:     134955  itACCESS:          0  itHIT:          0  itMISS:          0  dtACCESS:          0  dtHIT:          0  dtMISS:          0
cpu0_STLB LOAD         ACCESS:    2311130  HIT:    2092654  MISS:     218476  iACCESS:     361883  iHIT:     278362  iMISS:      83521  dACCESS:    1949247  dHIT:    1814292  dMISS:     134955  itACCESS:          0  itHIT:          0  itMISS:          0  dtACCESS:          0  dtHIT:          0  dtMISS:          0
cpu0_STLB RFO          ACCESS:          0  HIT:          0  MISS:          0  iACCESS:          0  iHIT:          0  iMISS:          0  dACCESS:          0  dHIT:          0  dMISS:          0  itACCESS:          0  itHIT:          0  itMISS:          0  dtACCESS:          0  dtHIT:          0  dtMISS:          0
cpu0_STLB PREFETCH     ACCESS:          0  HIT:          0  MISS:          0  iACCESS:          0  iHIT:          0  iMISS:          0  dACCESS:          0  dHIT:          0  dMISS:          0  itACCESS:          0  itHIT:          0  itMISS:          0  dtACCESS:          0  dtHIT:          0  dtMISS:          0
cpu0_STLB WRITE        ACCESS:          0  HIT:          0  MISS:          0  iACCESS:          0  iHIT:          0  iMISS:          0  dACCESS:          0  dHIT:          0  dMISS:          0  itACCESS:          0  itHIT:          0  itMISS:          0  dtACCESS:          0  dtHIT:          0  dtMISS:          0
cpu0_STLB TRANSLATION  ACCESS:          0  HIT:          0  MISS:          0  iACCESS:          0  iHIT:          0  iMISS:          0  dACCESS:          0  dHIT:          0  dMISS:          0  itACCESS:          0  itHIT:          0  itMISS:          0  dtACCESS:          0  dtHIT:          0  dtMISS:          0
cpu0_STLB PREFETCH  REQUESTED:          0  ISSUED:          0  CROSSED:          0  USEFUL:          0  USELESS:          0
cpu0_STLB AVERAGE iMISS LATENCY: 17.6688 cycles
cpu0_STLB AVERAGE dMISS LATENCY: 44.8323 cycles
cpu0_STLB AVERAGE itMISS LATENCY: 0 cycles
cpu0_STLB AVERAGE dtMISS LATENCY: 0 cycles
cpu0_STLB PAGE CROSSINGS (TLB HIT):         0 
cpu0_STLB PAGE CROSSINGS (TLB MISS):         0 
cpu0_STLB AVERAGE MISS LATENCY: 62.501 cycles
cpu0_L1D TOTAL       ACCESS:   45926894  HIT:   38765207  MISS:    7161687  iACCESS:          0  iHIT:          0  iMISS:          0  dACCESS:   45649290  dHIT:   38739848  dMISS:    6909442  itACCESS:      89709  itHIT:      14336  itMISS:      75373  dtACCESS:     187895  dtHIT:      11023  dtMISS:     176872
cpu0_L1D LOAD         ACCESS:   21927756  HIT:   18027980  MISS:    3899776  iACCESS:          0  iHIT:          0  iMISS:          0  dACCESS:   21927756  dHIT:   18027980  dMISS:    3899776  itACCESS:          0  itHIT:          0  itMISS:          0  dtACCESS:          0  dtHIT:          0  dtMISS:          0
cpu0_L1D RFO          ACCESS:          0  HIT:          0  MISS:          0  iACCESS:          0  iHIT:          0  iMISS:          0  dACCESS:          0  dHIT:          0  dMISS:          0  itACCESS:          0  itHIT:          0  itMISS:          0  dtACCESS:          0  dtHIT:          0  dtMISS:          0
cpu0_L1D PREFETCH     ACCESS:   13816590  HIT:   11282716  MISS:    2533874  iACCESS:          0  iHIT:          0  iMISS:          0  dACCESS:   13816590  dHIT:   11282716  dMISS:    2533874  itACCESS:          0  itHIT:          0  itMISS:          0  dtACCESS:          0  dtHIT:          0  dtMISS:          0
cpu0_L1D WRITE        ACCESS:    9904944  HIT:    9429152  MISS:     475792  iACCESS:          0  iHIT:          0  iMISS:          0  dACCESS:    9904944  dHIT:    9429152  dMISS:     475792  itACCESS:          0  itHIT:          0  itMISS:          0  dtACCESS:          0  dtHIT:          0  dtMISS:          0
cpu0_L1D TRANSLATION  ACCESS:     277604  HIT:      25359  MISS:     252245  iACCESS:          0  iHIT:          0  iMISS:          0  dACCESS:          0  dHIT:          0  dMISS:          0  itACCESS:      89709  itHIT:      14336  itMISS:      75373  dtACCESS:     187895  dtHIT:      11023  dtMISS:     176872
cpu0_L1D PREFETCH  REQUESTED:   21927756  ISSUED:   17526563  CROSSED:          0  USEFUL:     285601  USELESS:     692482
cpu0_L1D AVERAGE iMISS LATENCY: 0 cycles
cpu0_L1D AVERAGE dMISS LATENCY: 27.5219 cycles
cpu0_L1D AVERAGE itMISS LATENCY: 0.438121 cycles
cpu0_L1D AVERAGE dtMISS LATENCY: 1.11076 cycles
cpu0_L1D PAGE CROSSINGS (TLB HIT):         0 
cpu0_L1D PAGE CROSSINGS (TLB MISS):         0 
cpu0_L1D AVERAGE MISS LATENCY: 29.0708 cycles
cpu0_L2C TOTAL       ACCESS:    7969590  HIT:    1593915  MISS:    6375675  iACCESS:    3095651  iHIT:     651260  iMISS:    2444391  dACCESS:    4629864  dHIT:     758982  dMISS:    3870882  itACCESS:      75373  itHIT:      57112  itMISS:      18261  dtACCESS:     168702  dtHIT:     126561  dtMISS:      42141
cpu0_L2C LOAD         ACCESS:    2778494  HIT:     485519  MISS:    2292975  iACCESS:     703487  iHIT:      92340  iMISS:     611147  dACCESS:    2075007  dHIT:     393179  dMISS:    1681828  itACCESS:          0  itHIT:          0  itMISS:          0  dtACCESS:          0  dtHIT:          0  dtMISS:          0
cpu0_L2C RFO          ACCESS:     167488  HIT:      22783  MISS:     144705  iACCESS:          0  iHIT:          0  iMISS:          0  dACCESS:     167488  dHIT:      22783  dMISS:     144705  itACCESS:          0  itHIT:          0  itMISS:          0  dtACCESS:          0  dtHIT:          0  dtMISS:          0
cpu0_L2C PREFETCH     ACCESS:    4525453  HIT:     847856  MISS:    3677597  iACCESS:    2392164  iHIT:     558920  iMISS:    1833244  dACCESS:    2133289  dHIT:     288936  dMISS:    1844353  itACCESS:          0  itHIT:          0  itMISS:          0  dtACCESS:          0  dtHIT:          0  dtMISS:          0
cpu0_L2C WRITE        ACCESS:     254080  HIT:      54084  MISS:     199996  iACCESS:          0  iHIT:          0  iMISS:          0  dACCESS:     254080  dHIT:      54084  dMISS:     199996  itACCESS:          0  itHIT:          0  itMISS:          0  dtACCESS:          0  dtHIT:          0  dtMISS:          0
cpu0_L2C TRANSLATION  ACCESS:     244075  HIT:     183673  MISS:      60402  iACCESS:          0  iHIT:          0  iMISS:          0  dACCESS:          0  dHIT:          0  dMISS:          0  itACCESS:      75373  itHIT:      57112  itMISS:      18261  dtACCESS:     168702  dtHIT:     126561  dtMISS:      42141
cpu0_L2C PREFETCH  REQUESTED:    1388640  ISSUED:    1388634  CROSSED:          0  USEFUL:     388652  USELESS:     409552
cpu0_L2C AVERAGE iMISS LATENCY: 19.3734 cycles
cpu0_L2C AVERAGE dMISS LATENCY: 35.7518 cycles
cpu0_L2C AVERAGE itMISS LATENCY: 0.382587 cycles
cpu0_L2C AVERAGE dtMISS LATENCY: 1.0021 cycles
cpu0_L2C PAGE CROSSINGS (TLB HIT):         0 
cpu0_L2C PAGE CROSSINGS (TLB MISS):         0 
cpu0_L2C AVERAGE MISS LATENCY: 56.5099 cycles
LLC TOTAL       ACCESS:    6232321  HIT:    4727273  MISS:    1505048  iACCESS:    2369988  iHIT:    1843989  iMISS:     525999  dACCESS:    3801931  dHIT:    2864534  dMISS:     937397  itACCESS:      18261  itHIT:       6293  itMISS:      11968  dtACCESS:      42141  dtHIT:      12457  dtMISS:      29684
LLC LOAD         ACCESS:    2286706  HIT:    1939379  MISS:     347327  iACCESS:     609485  iHIT:     500592  iMISS:     108893  dACCESS:    1677221  dHIT:    1438787  dMISS:     238434  itACCESS:          0  itHIT:          0  itMISS:          0  dtACCESS:          0  dtHIT:          0  dtMISS:          0
LLC RFO          ACCESS:     144669  HIT:      83258  MISS:      61411  iACCESS:          0  iHIT:          0  iMISS:          0  dACCESS:     144669  dHIT:      83258  dMISS:      61411  itACCESS:          0  itHIT:          0  itMISS:          0  dtACCESS:          0  dtHIT:          0  dtMISS:          0
LLC PREFETCH     ACCESS:    3509417  HIT:    2454759  MISS:    1054658  iACCESS:    1760503  iHIT:    1343397  iMISS:     417106  dACCESS:    1748914  dHIT:    1111362  dMISS:     637552  itACCESS:          0  itHIT:          0  itMISS:          0  dtACCESS:          0  dtHIT:          0  dtMISS:          0
LLC WRITE        ACCESS:     231127  HIT:     231127  MISS:          0  iACCESS:          0  iHIT:          0  iMISS:          0  dACCESS:     231127  dHIT:     231127  dMISS:          0  itACCESS:          0  itHIT:          0  itMISS:          0  dtACCESS:          0  dtHIT:          0  dtMISS:          0
LLC TRANSLATION  ACCESS:      60402  HIT:      18750  MISS:      41652  iACCESS:          0  iHIT:          0  iMISS:          0  dACCESS:          0  dHIT:          0  dMISS:          0  itACCESS:      18261  itHIT:       6293  itMISS:      11968  dtACCESS:      42141  dtHIT:      12457  dtMISS:      29684
LLC PREFETCH  REQUESTED:          0  ISSUED:          0  CROSSED:          0  USEFUL:          0  USELESS:          0
LLC AVERAGE iMISS LATENCY: 51.5675 cycles
LLC AVERAGE dMISS LATENCY: 106.818 cycles
LLC AVERAGE itMISS LATENCY: 1.38281 cycles
LLC AVERAGE dtMISS LATENCY: 3.6952 cycles
LLC PAGE CROSSINGS (TLB HIT):         0 
LLC PAGE CROSSINGS (TLB MISS):         0 
LLC AVERAGE MISS LATENCY: 163.463 cycles

PageTableWalker TOTAL       ACCESS:     105193  
PageTableWalker AVERAGE LATENCY: 3.82156 cycles
PageTableWalker TOTAL LATENCY: 402001 cycles

DRAM Statistics
Channel 0
 RQ ROW_BUFFER_HIT:     431108
  ROW_BUFFER_MISS:    1060645
 AVG DBUS CONGESTED CYCLE:    3.64362
 WQ ROW_BUFFER_HIT:      37467
  ROW_BUFFER_MISS:      36223  FULL:          0

