last_page:0x200000000000000
VMEM_RES_CAP:0x100000
PAGE_SIZE:4096
LOG2_PAGE_SIZE:12
LOG2_PAGE_TABLE_SIZE:9
page_table_levels:5
WARNING: physical memory size is smaller than virtual memory size
FDiP enabled with aggresivity 16

*** ChampSim Multicore Out-of-Order Simulator ***

Warmup Instructions: 50000000
Simulation Instructions: 100000000
Number of CPUs: 1
Small page size: 4096
Large page size: 2097152

CPU 0 Bimodal branch predictor
Basic BTB sets: 1024 ways: 8 indirect buffer size: 4096 RAS size: 64
Instruction page size distrubution: 0
Loading instruction page size distribution from /home/bsc/bsc018186/scratch/itp_asplos25_AE/dump/srv73_ap.pdst
Data page size distrubution: 0
Loading data page size distribution from /home/bsc/bsc018186/scratch/itp_asplos25_AE/dump/srv73_ap.pdst
cpu0_L2C IP-based stride prefetcher
cpu0_L2C is using xPTP/LRU
	TLB_LOWER_STRESS_THRESHOLD:1
	TLB_UPPER_STRESS_THRESHOLD:9
	MIN_EVICTION_POSITION:4
cpu0_L1D next line prefetcher
cpu0_STLB using iTP with max lru@8
cpu0_STLB using iTP with instr@0 and data@2
Init sat counter with 3 bits (max:50).
cpu0_L1I next line prefetcher
Off-chip DRAM Size: 4 GiB Channels: 1 Width: 64-bit Data Rate: 3200 MT/s
Heartbeat CPU 0 instructions: 10000000 cycles: 2500132 heartbeat IPC: 3.99979 cumulative IPC: 3.99979 (Simulation time: 0 hr 0 min 43 sec) 
Heartbeat CPU 0 instructions: 20000003 cycles: 5000201 heartbeat IPC: 3.9999 cumulative IPC: 3.99984 (Simulation time: 0 hr 1 min 29 sec) 
Heartbeat CPU 0 instructions: 30000003 cycles: 7508087 heartbeat IPC: 3.98743 cumulative IPC: 3.9957 (Simulation time: 0 hr 2 min 14 sec) 
Heartbeat CPU 0 instructions: 40000002 cycles: 10015413 heartbeat IPC: 3.98832 cumulative IPC: 3.99385 (Simulation time: 0 hr 2 min 57 sec) 
Heartbeat CPU 0 instructions: 50000003 cycles: 12517930 heartbeat IPC: 3.99598 cumulative IPC: 3.99428 (Simulation time: 0 hr 3 min 43 sec) 
Warmup finished CPU 0 instructions: 50000003 cycles: 12517931 cumulative IPC: 3.99428 (Simulation time: 0 hr 3 min 43 sec) 

Warmup complete CPU 0 instructions: 50000003 cycles: 12517931 (Simulation time: 0 hr 3 min 43 sec) 

Heartbeat CPU 0 instructions: 60000000 cycles: 31168083 heartbeat IPC: 0.536189 cumulative IPC: 0.536189 (Simulation time: 0 hr 5 min 4 sec) 
Heartbeat CPU 0 instructions: 70000002 cycles: 40108444 heartbeat IPC: 1.11853 cumulative IPC: 0.724887 (Simulation time: 0 hr 6 min 15 sec) 
Heartbeat CPU 0 instructions: 80000004 cycles: 59498317 heartbeat IPC: 0.515734 cumulative IPC: 0.638565 (Simulation time: 0 hr 7 min 35 sec) 
Heartbeat CPU 0 instructions: 90000002 cycles: 78523544 heartbeat IPC: 0.525618 cumulative IPC: 0.60601 (Simulation time: 0 hr 8 min 55 sec) 
Heartbeat CPU 0 instructions: 100000000 cycles: 97819128 heartbeat IPC: 0.518254 cumulative IPC: 0.586159 (Simulation time: 0 hr 10 min 13 sec) 
*** Reached end of trace: /gpfs/projects/bsc18/MN4/bsc18/romol/ChampSim/traces/qualcomm_srv/srv73_ap.champsimtrace.xz
Heartbeat CPU 0 instructions: 110000001 cycles: 117024445 heartbeat IPC: 0.52069 cumulative IPC: 0.574127 (Simulation time: 0 hr 11 min 29 sec) 
Heartbeat CPU 0 instructions: 120000002 cycles: 136327597 heartbeat IPC: 0.518051 cumulative IPC: 0.565384 (Simulation time: 0 hr 12 min 42 sec) 
Heartbeat CPU 0 instructions: 130000000 cycles: 151566842 heartbeat IPC: 0.656201 cumulative IPC: 0.575338 (Simulation time: 0 hr 13 min 52 sec) 
Heartbeat CPU 0 instructions: 140000000 cycles: 161407959 heartbeat IPC: 1.01615 cumulative IPC: 0.604473 (Simulation time: 0 hr 14 min 50 sec) 
Heartbeat CPU 0 instructions: 150000004 cycles: 179836163 heartbeat IPC: 0.542647 cumulative IPC: 0.597664 (Simulation time: 0 hr 16 min 3 sec) 
Simulation finished CPU 0 instructions: 100000001 cycles: 167318233 cumulative IPC: 0.597664 (Simulation time: 0 hr 16 min 3 sec) 

Simulation complete CPU 0 instructions: 100000001 cycles: 167318233 (Simulation time: 0 hr 16 min 3 sec) 


ChampSim completed all CPUs

Saving instructions large page distribution to /home/bsc/bsc018186/scratch/itp_asplos25_AE/dump/srv73_ap.pdst...
Saving data large page distribution to /home/bsc/bsc018186/scratch/itp_asplos25_AE/dump/srv73_ap.pdst...
=== Simulation ===
CPU 0 runs /gpfs/projects/bsc18/MN4/bsc18/romol/ChampSim/traces/qualcomm_srv/srv73_ap.champsimtrace.xz

Region of Interest Statistics

CPU 0 cumulative IPC: 0.597664 instructions: 100000001 cycles: 167318233
CPU 0 Branch Prediction Accuracy: 82.7501% MPKI: 33.8556 Average ROB Occupancy at Mispredict: 11.7106
Branch type MPKI
BRANCH_DIRECT_JUMP: 1.01076
BRANCH_INDIRECT: 16.971
BRANCH_CONDITIONAL: 11.2404
BRANCH_DIRECT_CALL: 1.82837
BRANCH_INDIRECT_CALL: 1.46524
BRANCH_RETURN: 1.33985

Instructions large pages: 0
Instructions small pages: 1671
Large page distribution for instructions: 0%

Data large pages: 0
Data small pages: 5667
Large page distribution for data: 0%

cpu0_L1I TOTAL       ACCESS:   32579331  HIT:   25980667  MISS:    6598664  iACCESS:   32579331  iHIT:   25980667  iMISS:    6598664  dACCESS:          0  dHIT:          0  dMISS:          0  itACCESS:          0  itHIT:          0  itMISS:          0  dtACCESS:          0  dtHIT:          0  dtMISS:          0
cpu0_L1I LOAD         ACCESS:    7999881  HIT:    6157908  MISS:    1841973  iACCESS:    7999881  iHIT:    6157908  iMISS:    1841973  dACCESS:          0  dHIT:          0  dMISS:          0  itACCESS:          0  itHIT:          0  itMISS:          0  dtACCESS:          0  dtHIT:          0  dtMISS:          0
cpu0_L1I RFO          ACCESS:          0  HIT:          0  MISS:          0  iACCESS:          0  iHIT:          0  iMISS:          0  dACCESS:          0  dHIT:          0  dMISS:          0  itACCESS:          0  itHIT:          0  itMISS:          0  dtACCESS:          0  dtHIT:          0  dtMISS:          0
cpu0_L1I PREFETCH     ACCESS:   24579450  HIT:   19822759  MISS:    4756691  iACCESS:   24579450  iHIT:   19822759  iMISS:    4756691  dACCESS:          0  dHIT:          0  dMISS:          0  itACCESS:          0  itHIT:          0  itMISS:          0  dtACCESS:          0  dtHIT:          0  dtMISS:          0
cpu0_L1I WRITE        ACCESS:          0  HIT:          0  MISS:          0  iACCESS:          0  iHIT:          0  iMISS:          0  dACCESS:          0  dHIT:          0  dMISS:          0  itACCESS:          0  itHIT:          0  itMISS:          0  dtACCESS:          0  dtHIT:          0  dtMISS:          0
cpu0_L1I TRANSLATION  ACCESS:          0  HIT:          0  MISS:          0  iACCESS:          0  iHIT:          0  iMISS:          0  dACCESS:          0  dHIT:          0  dMISS:          0  itACCESS:          0  itHIT:          0  itMISS:          0  dtACCESS:          0  dtHIT:          0  dtMISS:          0
cpu0_L1I PREFETCH  REQUESTED:   26219467  ISSUED:   26219162  CROSSED:          0  USEFUL:    1558776  USELESS:     567918
cpu0_L1I AVERAGE iMISS LATENCY: 18.0843 cycles
cpu0_L1I AVERAGE dMISS LATENCY: 0 cycles
cpu0_L1I AVERAGE itMISS LATENCY: 0 cycles
cpu0_L1I AVERAGE dtMISS LATENCY: 0 cycles
cpu0_L1I PAGE CROSSINGS (TLB HIT):         0 
cpu0_L1I PAGE CROSSINGS (TLB MISS):         0 
cpu0_L1I AVERAGE MISS LATENCY: 18.0843 cycles
cpu0_ITLB TOTAL       ACCESS:   27774541  HIT:   26205580  MISS:    1568961  iACCESS:   27774541  iHIT:   26205580  iMISS:    1568961  dACCESS:          0  dHIT:          0  dMISS:          0  itACCESS:          0  itHIT:          0  itMISS:          0  dtACCESS:          0  dtHIT:          0  dtMISS:          0
cpu0_ITLB LOAD         ACCESS:   27774541  HIT:   26205580  MISS:    1568961  iACCESS:   27774541  iHIT:   26205580  iMISS:    1568961  dACCESS:          0  dHIT:          0  dMISS:          0  itACCESS:          0  itHIT:          0  itMISS:          0  dtACCESS:          0  dtHIT:          0  dtMISS:          0
cpu0_ITLB RFO          ACCESS:          0  HIT:          0  MISS:          0  iACCESS:          0  iHIT:          0  iMISS:          0  dACCESS:          0  dHIT:          0  dMISS:          0  itACCESS:          0  itHIT:          0  itMISS:          0  dtACCESS:          0  dtHIT:          0  dtMISS:          0
cpu0_ITLB PREFETCH     ACCESS:          0  HIT:          0  MISS:          0  iACCESS:          0  iHIT:          0  iMISS:          0  dACCESS:          0  dHIT:          0  dMISS:          0  itACCESS:          0  itHIT:          0  itMISS:          0  dtACCESS:          0  dtHIT:          0  dtMISS:          0
cpu0_ITLB WRITE        ACCESS:          0  HIT:          0  MISS:          0  iACCESS:          0  iHIT:          0  iMISS:          0  dACCESS:          0  dHIT:          0  dMISS:          0  itACCESS:          0  itHIT:          0  itMISS:          0  dtACCESS:          0  dtHIT:          0  dtMISS:          0
cpu0_ITLB TRANSLATION  ACCESS:          0  HIT:          0  MISS:          0  iACCESS:          0  iHIT:          0  iMISS:          0  dACCESS:          0  dHIT:          0  dMISS:          0  itACCESS:          0  itHIT:          0  itMISS:          0  dtACCESS:          0  dtHIT:          0  dtMISS:          0
cpu0_ITLB PREFETCH  REQUESTED:          0  ISSUED:          0  CROSSED:          0  USEFUL:     268530  USELESS:      52852
cpu0_ITLB AVERAGE iMISS LATENCY: 3.63483 cycles
cpu0_ITLB AVERAGE dMISS LATENCY: 0 cycles
cpu0_ITLB AVERAGE itMISS LATENCY: 0 cycles
cpu0_ITLB AVERAGE dtMISS LATENCY: 0 cycles
cpu0_ITLB PAGE CROSSINGS (TLB HIT):         0 
cpu0_ITLB PAGE CROSSINGS (TLB MISS):         0 
cpu0_ITLB AVERAGE MISS LATENCY: 3.63483 cycles
cpu0_DTLB TOTAL       ACCESS:   30940442  HIT:   27315467  MISS:    3624975  iACCESS:          0  iHIT:          0  iMISS:          0  dACCESS:   30940442  dHIT:   27315467  dMISS:    3624975  itACCESS:          0  itHIT:          0  itMISS:          0  dtACCESS:          0  dtHIT:          0  dtMISS:          0
cpu0_DTLB LOAD         ACCESS:   30940442  HIT:   27315467  MISS:    3624975  iACCESS:          0  iHIT:          0  iMISS:          0  dACCESS:   30940442  dHIT:   27315467  dMISS:    3624975  itACCESS:          0  itHIT:          0  itMISS:          0  dtACCESS:          0  dtHIT:          0  dtMISS:          0
cpu0_DTLB RFO          ACCESS:          0  HIT:          0  MISS:          0  iACCESS:          0  iHIT:          0  iMISS:          0  dACCESS:          0  dHIT:          0  dMISS:          0  itACCESS:          0  itHIT:          0  itMISS:          0  dtACCESS:          0  dtHIT:          0  dtMISS:          0
cpu0_DTLB PREFETCH     ACCESS:          0  HIT:          0  MISS:          0  iACCESS:          0  iHIT:          0  iMISS:          0  dACCESS:          0  dHIT:          0  dMISS:          0  itACCESS:          0  itHIT:          0  itMISS:          0  dtACCESS:          0  dtHIT:          0  dtMISS:          0
cpu0_DTLB WRITE        ACCESS:          0  HIT:          0  MISS:          0  iACCESS:          0  iHIT:          0  iMISS:          0  dACCESS:          0  dHIT:          0  dMISS:          0  itACCESS:          0  itHIT:          0  itMISS:          0  dtACCESS:          0  dtHIT:          0  dtMISS:          0
cpu0_DTLB TRANSLATION  ACCESS:          0  HIT:          0  MISS:          0  iACCESS:          0  iHIT:          0  iMISS:          0  dACCESS:          0  dHIT:          0  dMISS:          0  itACCESS:          0  itHIT:          0  itMISS:          0  dtACCESS:          0  dtHIT:          0  dtMISS:          0
cpu0_DTLB PREFETCH  REQUESTED:          0  ISSUED:          0  CROSSED:          0  USEFUL:          0  USELESS:          0
cpu0_DTLB AVERAGE iMISS LATENCY: 0 cycles
cpu0_DTLB AVERAGE dMISS LATENCY: 8.4279 cycles
cpu0_DTLB AVERAGE itMISS LATENCY: 0 cycles
cpu0_DTLB AVERAGE dtMISS LATENCY: 0 cycles
cpu0_DTLB PAGE CROSSINGS (TLB HIT):         0 
cpu0_DTLB PAGE CROSSINGS (TLB MISS):         0 
cpu0_DTLB AVERAGE MISS LATENCY: 8.4279 cycles
cpu0_STLB TOTAL       ACCESS:    2271540  HIT:    2091674  MISS:     179866  iACCESS:     321385  iHIT:     292138  iMISS:      29247  dACCESS:    1950155  dHIT:    1799536  dMISS:     150619  itACCESS:          0  itHIT:          0  itMISS:          0  dtACCESS:          0  dtHIT:          0  dtMISS:          0
cpu0_STLB LOAD         ACCESS:    2271540  HIT:    2091674  MISS:     179866  iACCESS:     321385  iHIT:     292138  iMISS:      29247  dACCESS:    1950155  dHIT:    1799536  dMISS:     150619  itACCESS:          0  itHIT:          0  itMISS:          0  dtACCESS:          0  dtHIT:          0  dtMISS:          0
cpu0_STLB RFO          ACCESS:          0  HIT:          0  MISS:          0  iACCESS:          0  iHIT:          0  iMISS:          0  dACCESS:          0  dHIT:          0  dMISS:          0  itACCESS:          0  itHIT:          0  itMISS:          0  dtACCESS:          0  dtHIT:          0  dtMISS:          0
cpu0_STLB PREFETCH     ACCESS:          0  HIT:          0  MISS:          0  iACCESS:          0  iHIT:          0  iMISS:          0  dACCESS:          0  dHIT:          0  dMISS:          0  itACCESS:          0  itHIT:          0  itMISS:          0  dtACCESS:          0  dtHIT:          0  dtMISS:          0
cpu0_STLB WRITE        ACCESS:          0  HIT:          0  MISS:          0  iACCESS:          0  iHIT:          0  iMISS:          0  dACCESS:          0  dHIT:          0  dMISS:          0  itACCESS:          0  itHIT:          0  itMISS:          0  dtACCESS:          0  dtHIT:          0  dtMISS:          0
cpu0_STLB TRANSLATION  ACCESS:          0  HIT:          0  MISS:          0  iACCESS:          0  iHIT:          0  iMISS:          0  dACCESS:          0  dHIT:          0  dMISS:          0  itACCESS:          0  itHIT:          0  itMISS:          0  dtACCESS:          0  dtHIT:          0  dtMISS:          0
cpu0_STLB PREFETCH  REQUESTED:          0  ISSUED:          0  CROSSED:          0  USEFUL:          0  USELESS:          0
cpu0_STLB AVERAGE iMISS LATENCY: 17.7203 cycles
cpu0_STLB AVERAGE dMISS LATENCY: 82.0378 cycles
cpu0_STLB AVERAGE itMISS LATENCY: 0 cycles
cpu0_STLB AVERAGE dtMISS LATENCY: 0 cycles
cpu0_STLB PAGE CROSSINGS (TLB HIT):         0 
cpu0_STLB PAGE CROSSINGS (TLB MISS):         0 
cpu0_STLB AVERAGE MISS LATENCY: 99.758 cycles
cpu0_L1D TOTAL       ACCESS:   48519673  HIT:   40968813  MISS:    7550860  iACCESS:          0  iHIT:          0  iMISS:          0  dACCESS:   48256566  dHIT:   40952326  dMISS:    7304240  itACCESS:      38235  itHIT:       3290  itMISS:      34945  dtACCESS:     224872  dtHIT:      13197  dtMISS:     211675
cpu0_L1D LOAD         ACCESS:   23572758  HIT:   19583771  MISS:    3988987  iACCESS:          0  iHIT:          0  iMISS:          0  dACCESS:   23572758  dHIT:   19583771  dMISS:    3988987  itACCESS:          0  itHIT:          0  itMISS:          0  dtACCESS:          0  dtHIT:          0  dtMISS:          0
cpu0_L1D RFO          ACCESS:          0  HIT:          0  MISS:          0  iACCESS:          0  iHIT:          0  iMISS:          0  dACCESS:          0  dHIT:          0  dMISS:          0  itACCESS:          0  itHIT:          0  itMISS:          0  dtACCESS:          0  dtHIT:          0  dtMISS:          0
cpu0_L1D PREFETCH     ACCESS:   14771950  HIT:   12125384  MISS:    2646566  iACCESS:          0  iHIT:          0  iMISS:          0  dACCESS:   14771950  dHIT:   12125384  dMISS:    2646566  itACCESS:          0  itHIT:          0  itMISS:          0  dtACCESS:          0  dtHIT:          0  dtMISS:          0
cpu0_L1D WRITE        ACCESS:    9911858  HIT:    9243171  MISS:     668687  iACCESS:          0  iHIT:          0  iMISS:          0  dACCESS:    9911858  dHIT:    9243171  dMISS:     668687  itACCESS:          0  itHIT:          0  itMISS:          0  dtACCESS:          0  dtHIT:          0  dtMISS:          0
cpu0_L1D TRANSLATION  ACCESS:     263107  HIT:      16487  MISS:     246620  iACCESS:          0  iHIT:          0  iMISS:          0  dACCESS:          0  dHIT:          0  dMISS:          0  itACCESS:      38235  itHIT:       3290  itMISS:      34945  dtACCESS:     224872  dtHIT:      13197  dtMISS:     211675
cpu0_L1D PREFETCH  REQUESTED:   23572758  ISSUED:   18888381  CROSSED:          0  USEFUL:     290553  USELESS:     752814
cpu0_L1D AVERAGE iMISS LATENCY: 0 cycles
cpu0_L1D AVERAGE dMISS LATENCY: 24.3639 cycles
cpu0_L1D AVERAGE itMISS LATENCY: 0.37983 cycles
cpu0_L1D AVERAGE dtMISS LATENCY: 1.67207 cycles
cpu0_L1D PAGE CROSSINGS (TLB HIT):         0 
cpu0_L1D PAGE CROSSINGS (TLB MISS):         0 
cpu0_L1D AVERAGE MISS LATENCY: 26.4158 cycles
cpu0_L2C TOTAL       ACCESS:    7648908  HIT:    2552277  MISS:    5096631  iACCESS:    2735976  iHIT:    1012054  iMISS:    1723922  dACCESS:    4697061  dHIT:    1407483  dMISS:    3289578  itACCESS:      29834  itHIT:      11859  itMISS:      17975  dtACCESS:     186037  dtHIT:     120881  dtMISS:      65156
cpu0_L2C LOAD         ACCESS:    2905901  HIT:     963015  MISS:    1942886  iACCESS:     634033  iHIT:     212831  iMISS:     421202  dACCESS:    2271868  dHIT:     750184  dMISS:    1521684  itACCESS:          0  itHIT:          0  itMISS:          0  dtACCESS:          0  dtHIT:          0  dtMISS:          0
cpu0_L2C RFO          ACCESS:     185526  HIT:      38848  MISS:     146678  iACCESS:          0  iHIT:          0  iMISS:          0  dACCESS:     185526  dHIT:      38848  dMISS:     146678  itACCESS:          0  itHIT:          0  itMISS:          0  dtACCESS:          0  dtHIT:          0  dtMISS:          0
cpu0_L2C PREFETCH     ACCESS:    4085107  HIT:    1311112  MISS:    2773995  iACCESS:    2101943  iHIT:     799223  iMISS:    1302720  dACCESS:    1983164  dHIT:     511889  dMISS:    1471275  itACCESS:          0  itHIT:          0  itMISS:          0  dtACCESS:          0  dtHIT:          0  dtMISS:          0
cpu0_L2C WRITE        ACCESS:     256503  HIT:     106562  MISS:     149941  iACCESS:          0  iHIT:          0  iMISS:          0  dACCESS:     256503  dHIT:     106562  dMISS:     149941  itACCESS:          0  itHIT:          0  itMISS:          0  dtACCESS:          0  dtHIT:          0  dtMISS:          0
cpu0_L2C TRANSLATION  ACCESS:     215871  HIT:     132740  MISS:      83131  iACCESS:          0  iHIT:          0  iMISS:          0  dACCESS:          0  dHIT:          0  dMISS:          0  itACCESS:      29834  itHIT:      11859  itMISS:      17975  dtACCESS:     186037  dtHIT:     120881  dtMISS:      65156
cpu0_L2C PREFETCH  REQUESTED:    1110874  ISSUED:    1110844  CROSSED:          0  USEFUL:     265839  USELESS:     307186
cpu0_L2C AVERAGE iMISS LATENCY: 18.6656 cycles
cpu0_L2C AVERAGE dMISS LATENCY: 38.6216 cycles
cpu0_L2C AVERAGE itMISS LATENCY: 0.506367 cycles
cpu0_L2C AVERAGE dtMISS LATENCY: 2.13447 cycles
cpu0_L2C PAGE CROSSINGS (TLB HIT):         0 
cpu0_L2C PAGE CROSSINGS (TLB MISS):         0 
cpu0_L2C AVERAGE MISS LATENCY: 59.9281 cycles
LLC TOTAL       ACCESS:    5007557  HIT:    3708192  MISS:    1299365  iACCESS:    1671378  iHIT:    1249589  iMISS:     421789  dACCESS:    3253048  dHIT:    2438948  dMISS:     814100  itACCESS:      17975  itHIT:       5207  itMISS:      12768  dtACCESS:      65156  dtHIT:      14448  dtMISS:      50708
LLC LOAD         ACCESS:    1938052  HIT:    1634787  MISS:     303265  iACCESS:     420300  iHIT:     334144  iMISS:      86156  dACCESS:    1517752  dHIT:    1300643  dMISS:     217109  itACCESS:          0  itHIT:          0  itMISS:          0  dtACCESS:          0  dtHIT:          0  dtMISS:          0
LLC RFO          ACCESS:     146670  HIT:      79652  MISS:      67018  iACCESS:          0  iHIT:          0  iMISS:          0  dACCESS:     146670  dHIT:      79652  dMISS:      67018  itACCESS:          0  itHIT:          0  itMISS:          0  dtACCESS:          0  dtHIT:          0  dtMISS:          0
LLC PREFETCH     ACCESS:    2643946  HIT:    1781010  MISS:     862936  iACCESS:    1251078  iHIT:     915445  iMISS:     335633  dACCESS:    1392868  dHIT:     865565  dMISS:     527303  itACCESS:          0  itHIT:          0  itMISS:          0  dtACCESS:          0  dtHIT:          0  dtMISS:          0
LLC WRITE        ACCESS:     195758  HIT:     193088  MISS:       2670  iACCESS:          0  iHIT:          0  iMISS:          0  dACCESS:     195758  dHIT:     193088  dMISS:       2670  itACCESS:          0  itHIT:          0  itMISS:          0  dtACCESS:          0  dtHIT:          0  dtMISS:          0
LLC TRANSLATION  ACCESS:      83131  HIT:      19655  MISS:      63476  iACCESS:          0  iHIT:          0  iMISS:          0  dACCESS:          0  dHIT:          0  dMISS:          0  itACCESS:      17975  itHIT:       5207  itMISS:      12768  dtACCESS:      65156  dtHIT:      14448  dtMISS:      50708
LLC PREFETCH  REQUESTED:          0  ISSUED:          0  CROSSED:          0  USEFUL:          0  USELESS:          0
LLC AVERAGE iMISS LATENCY: 48.2804 cycles
LLC AVERAGE dMISS LATENCY: 106.831 cycles
LLC AVERAGE itMISS LATENCY: 1.71423 cycles
LLC AVERAGE dtMISS LATENCY: 7.38394 cycles
LLC PAGE CROSSINGS (TLB HIT):         0 
LLC PAGE CROSSINGS (TLB MISS):         0 
LLC AVERAGE MISS LATENCY: 164.209 cycles

PageTableWalker TOTAL       ACCESS:      83905  
PageTableWalker AVERAGE LATENCY: 4.45693 cycles
PageTableWalker TOTAL LATENCY: 373958 cycles

DRAM Statistics
Channel 0
 RQ ROW_BUFFER_HIT:     369034
  ROW_BUFFER_MISS:     915249
 AVG DBUS CONGESTED CYCLE:    3.65513
 WQ ROW_BUFFER_HIT:      33648
  ROW_BUFFER_MISS:      36476  FULL:          0

