last_page:0x200000000000000
VMEM_RES_CAP:0x100000
PAGE_SIZE:4096
LOG2_PAGE_SIZE:12
LOG2_PAGE_TABLE_SIZE:9
page_table_levels:5
WARNING: physical memory size is smaller than virtual memory size
FDiP enabled with aggresivity 16

*** ChampSim Multicore Out-of-Order Simulator ***

Warmup Instructions: 50000000
Simulation Instructions: 100000000
Number of CPUs: 1
Small page size: 4096
Large page size: 2097152

CPU 0 Bimodal branch predictor
Basic BTB sets: 1024 ways: 8 indirect buffer size: 4096 RAS size: 64
Instruction page size distrubution: 0
Loading instruction page size distribution from /home/bsc/bsc018186/scratch/itp_asplos25_AE/dump/srv771_ap.pdst
Data page size distrubution: 0
Loading data page size distribution from /home/bsc/bsc018186/scratch/itp_asplos25_AE/dump/srv771_ap.pdst
cpu0_L2C IP-based stride prefetcher
cpu0_L1D next line prefetcher
cpu0_L1I next line prefetcher
Off-chip DRAM Size: 4 GiB Channels: 1 Width: 64-bit Data Rate: 3200 MT/s
Heartbeat CPU 0 instructions: 10000001 cycles: 2500182 heartbeat IPC: 3.99971 cumulative IPC: 3.99971 (Simulation time: 0 hr 0 min 34 sec) 
Heartbeat CPU 0 instructions: 20000000 cycles: 5000207 heartbeat IPC: 3.99996 cumulative IPC: 3.99984 (Simulation time: 0 hr 1 min 11 sec) 
Heartbeat CPU 0 instructions: 30000003 cycles: 7500252 heartbeat IPC: 3.99993 cumulative IPC: 3.99987 (Simulation time: 0 hr 1 min 48 sec) 
Heartbeat CPU 0 instructions: 40000000 cycles: 10000292 heartbeat IPC: 3.99994 cumulative IPC: 3.99989 (Simulation time: 0 hr 2 min 25 sec) 
Heartbeat CPU 0 instructions: 50000000 cycles: 12500364 heartbeat IPC: 3.99989 cumulative IPC: 3.99989 (Simulation time: 0 hr 3 min 6 sec) 
Warmup finished CPU 0 instructions: 50000000 cycles: 12500365 cumulative IPC: 3.99989 (Simulation time: 0 hr 3 min 6 sec) 

Warmup complete CPU 0 instructions: 50000000 cycles: 12500365 (Simulation time: 0 hr 3 min 6 sec) 

Heartbeat CPU 0 instructions: 60000000 cycles: 32447227 heartbeat IPC: 0.501332 cumulative IPC: 0.501332 (Simulation time: 0 hr 4 min 18 sec) 
Heartbeat CPU 0 instructions: 70000004 cycles: 53675398 heartbeat IPC: 0.471073 cumulative IPC: 0.485732 (Simulation time: 0 hr 5 min 26 sec) 
Heartbeat CPU 0 instructions: 80000000 cycles: 73485674 heartbeat IPC: 0.504789 cumulative IPC: 0.491922 (Simulation time: 0 hr 6 min 32 sec) 
Heartbeat CPU 0 instructions: 90000002 cycles: 93977276 heartbeat IPC: 0.488005 cumulative IPC: 0.490937 (Simulation time: 0 hr 7 min 39 sec) 
Heartbeat CPU 0 instructions: 100000002 cycles: 114701106 heartbeat IPC: 0.482537 cumulative IPC: 0.489234 (Simulation time: 0 hr 8 min 47 sec) 
*** Reached end of trace: /gpfs/projects/bsc18/MN4/bsc18/romol/ChampSim/traces/qualcomm_srv/srv771_ap.champsimtrace.xz
Heartbeat CPU 0 instructions: 110000000 cycles: 134744232 heartbeat IPC: 0.498925 cumulative IPC: 0.490823 (Simulation time: 0 hr 9 min 53 sec) 
Heartbeat CPU 0 instructions: 120000000 cycles: 155001550 heartbeat IPC: 0.493649 cumulative IPC: 0.491224 (Simulation time: 0 hr 11 min 0 sec) 
Heartbeat CPU 0 instructions: 130000001 cycles: 174531906 heartbeat IPC: 0.512024 cumulative IPC: 0.493732 (Simulation time: 0 hr 12 min 7 sec) 
Heartbeat CPU 0 instructions: 140000000 cycles: 194489048 heartbeat IPC: 0.501074 cumulative IPC: 0.494537 (Simulation time: 0 hr 13 min 13 sec) 
Heartbeat CPU 0 instructions: 150000002 cycles: 215848748 heartbeat IPC: 0.468172 cumulative IPC: 0.491767 (Simulation time: 0 hr 14 min 22 sec) 
Simulation finished CPU 0 instructions: 100000002 cycles: 203348384 cumulative IPC: 0.491767 (Simulation time: 0 hr 14 min 22 sec) 

Simulation complete CPU 0 instructions: 100000002 cycles: 203348384 (Simulation time: 0 hr 14 min 22 sec) 


ChampSim completed all CPUs

Saving instructions large page distribution to /home/bsc/bsc018186/scratch/itp_asplos25_AE/dump/srv771_ap.pdst...
Saving data large page distribution to /home/bsc/bsc018186/scratch/itp_asplos25_AE/dump/srv771_ap.pdst...
=== Simulation ===
CPU 0 runs /gpfs/projects/bsc18/MN4/bsc18/romol/ChampSim/traces/qualcomm_srv/srv771_ap.champsimtrace.xz

Region of Interest Statistics

CPU 0 cumulative IPC: 0.491767 instructions: 100000002 cycles: 203348384
CPU 0 Branch Prediction Accuracy: 80.1658% MPKI: 35.8759 Average ROB Occupancy at Mispredict: 10.8164
Branch type MPKI
BRANCH_DIRECT_JUMP: 1.33592
BRANCH_INDIRECT: 18.0412
BRANCH_CONDITIONAL: 11.5983
BRANCH_DIRECT_CALL: 2.51543
BRANCH_INDIRECT_CALL: 0.66576
BRANCH_RETURN: 1.7194

Instructions large pages: 0
Instructions small pages: 6153
Large page distribution for instructions: 0%

Data large pages: 0
Data small pages: 5064
Large page distribution for data: 0%

cpu0_L1I TOTAL       ACCESS:   36071471  HIT:   28095737  MISS:    7975734  iACCESS:   36071471  iHIT:   28095737  iMISS:    7975734  dACCESS:          0  dHIT:          0  dMISS:          0  itACCESS:          0  itHIT:          0  itMISS:          0  dtACCESS:          0  dtHIT:          0  dtMISS:          0
cpu0_L1I LOAD         ACCESS:   10553392  HIT:    8357351  MISS:    2196041  iACCESS:   10553392  iHIT:    8357351  iMISS:    2196041  dACCESS:          0  dHIT:          0  dMISS:          0  itACCESS:          0  itHIT:          0  itMISS:          0  dtACCESS:          0  dtHIT:          0  dtMISS:          0
cpu0_L1I RFO          ACCESS:          0  HIT:          0  MISS:          0  iACCESS:          0  iHIT:          0  iMISS:          0  dACCESS:          0  dHIT:          0  dMISS:          0  itACCESS:          0  itHIT:          0  itMISS:          0  dtACCESS:          0  dtHIT:          0  dtMISS:          0
cpu0_L1I PREFETCH     ACCESS:   25518079  HIT:   19738386  MISS:    5779693  iACCESS:   25518079  iHIT:   19738386  iMISS:    5779693  dACCESS:          0  dHIT:          0  dMISS:          0  itACCESS:          0  itHIT:          0  itMISS:          0  dtACCESS:          0  dtHIT:          0  dtMISS:          0
cpu0_L1I WRITE        ACCESS:          0  HIT:          0  MISS:          0  iACCESS:          0  iHIT:          0  iMISS:          0  dACCESS:          0  dHIT:          0  dMISS:          0  itACCESS:          0  itHIT:          0  itMISS:          0  dtACCESS:          0  dtHIT:          0  dtMISS:          0
cpu0_L1I TRANSLATION  ACCESS:          0  HIT:          0  MISS:          0  iACCESS:          0  iHIT:          0  iMISS:          0  dACCESS:          0  dHIT:          0  dMISS:          0  itACCESS:          0  itHIT:          0  itMISS:          0  dtACCESS:          0  dtHIT:          0  dtMISS:          0
cpu0_L1I PREFETCH  REQUESTED:   28083668  ISSUED:   28083668  CROSSED:          0  USEFUL:    2008601  USELESS:     657942
cpu0_L1I AVERAGE iMISS LATENCY: 18.7505 cycles
cpu0_L1I AVERAGE dMISS LATENCY: 0 cycles
cpu0_L1I AVERAGE itMISS LATENCY: 0 cycles
cpu0_L1I AVERAGE dtMISS LATENCY: 0 cycles
cpu0_L1I PAGE CROSSINGS (TLB HIT):         0 
cpu0_L1I PAGE CROSSINGS (TLB MISS):         0 
cpu0_L1I AVERAGE MISS LATENCY: 18.7505 cycles
cpu0_ITLB TOTAL       ACCESS:   30299335  HIT:   28338001  MISS:    1961334  iACCESS:   30299335  iHIT:   28338001  iMISS:    1961334  dACCESS:          0  dHIT:          0  dMISS:          0  itACCESS:          0  itHIT:          0  itMISS:          0  dtACCESS:          0  dtHIT:          0  dtMISS:          0
cpu0_ITLB LOAD         ACCESS:   30299335  HIT:   28338001  MISS:    1961334  iACCESS:   30299335  iHIT:   28338001  iMISS:    1961334  dACCESS:          0  dHIT:          0  dMISS:          0  itACCESS:          0  itHIT:          0  itMISS:          0  dtACCESS:          0  dtHIT:          0  dtMISS:          0
cpu0_ITLB RFO          ACCESS:          0  HIT:          0  MISS:          0  iACCESS:          0  iHIT:          0  iMISS:          0  dACCESS:          0  dHIT:          0  dMISS:          0  itACCESS:          0  itHIT:          0  itMISS:          0  dtACCESS:          0  dtHIT:          0  dtMISS:          0
cpu0_ITLB PREFETCH     ACCESS:          0  HIT:          0  MISS:          0  iACCESS:          0  iHIT:          0  iMISS:          0  dACCESS:          0  dHIT:          0  dMISS:          0  itACCESS:          0  itHIT:          0  itMISS:          0  dtACCESS:          0  dtHIT:          0  dtMISS:          0
cpu0_ITLB WRITE        ACCESS:          0  HIT:          0  MISS:          0  iACCESS:          0  iHIT:          0  iMISS:          0  dACCESS:          0  dHIT:          0  dMISS:          0  itACCESS:          0  itHIT:          0  itMISS:          0  dtACCESS:          0  dtHIT:          0  dtMISS:          0
cpu0_ITLB TRANSLATION  ACCESS:          0  HIT:          0  MISS:          0  iACCESS:          0  iHIT:          0  iMISS:          0  dACCESS:          0  dHIT:          0  dMISS:          0  itACCESS:          0  itHIT:          0  itMISS:          0  dtACCESS:          0  dtHIT:          0  dtMISS:          0
cpu0_ITLB PREFETCH  REQUESTED:          0  ISSUED:          0  CROSSED:          0  USEFUL:     328926  USELESS:      66572
cpu0_ITLB AVERAGE iMISS LATENCY: 7.633 cycles
cpu0_ITLB AVERAGE dMISS LATENCY: 0 cycles
cpu0_ITLB AVERAGE itMISS LATENCY: 0 cycles
cpu0_ITLB AVERAGE dtMISS LATENCY: 0 cycles
cpu0_ITLB PAGE CROSSINGS (TLB HIT):         0 
cpu0_ITLB PAGE CROSSINGS (TLB MISS):         0 
cpu0_ITLB AVERAGE MISS LATENCY: 7.633 cycles
cpu0_DTLB TOTAL       ACCESS:   27975724  HIT:   26000126  MISS:    1975598  iACCESS:          0  iHIT:          0  iMISS:          0  dACCESS:   27975724  dHIT:   26000126  dMISS:    1975598  itACCESS:          0  itHIT:          0  itMISS:          0  dtACCESS:          0  dtHIT:          0  dtMISS:          0
cpu0_DTLB LOAD         ACCESS:   27975724  HIT:   26000126  MISS:    1975598  iACCESS:          0  iHIT:          0  iMISS:          0  dACCESS:   27975724  dHIT:   26000126  dMISS:    1975598  itACCESS:          0  itHIT:          0  itMISS:          0  dtACCESS:          0  dtHIT:          0  dtMISS:          0
cpu0_DTLB RFO          ACCESS:          0  HIT:          0  MISS:          0  iACCESS:          0  iHIT:          0  iMISS:          0  dACCESS:          0  dHIT:          0  dMISS:          0  itACCESS:          0  itHIT:          0  itMISS:          0  dtACCESS:          0  dtHIT:          0  dtMISS:          0
cpu0_DTLB PREFETCH     ACCESS:          0  HIT:          0  MISS:          0  iACCESS:          0  iHIT:          0  iMISS:          0  dACCESS:          0  dHIT:          0  dMISS:          0  itACCESS:          0  itHIT:          0  itMISS:          0  dtACCESS:          0  dtHIT:          0  dtMISS:          0
cpu0_DTLB WRITE        ACCESS:          0  HIT:          0  MISS:          0  iACCESS:          0  iHIT:          0  iMISS:          0  dACCESS:          0  dHIT:          0  dMISS:          0  itACCESS:          0  itHIT:          0  itMISS:          0  dtACCESS:          0  dtHIT:          0  dtMISS:          0
cpu0_DTLB TRANSLATION  ACCESS:          0  HIT:          0  MISS:          0  iACCESS:          0  iHIT:          0  iMISS:          0  dACCESS:          0  dHIT:          0  dMISS:          0  itACCESS:          0  itHIT:          0  itMISS:          0  dtACCESS:          0  dtHIT:          0  dtMISS:          0
cpu0_DTLB PREFETCH  REQUESTED:          0  ISSUED:          0  CROSSED:          0  USEFUL:          0  USELESS:          0
cpu0_DTLB AVERAGE iMISS LATENCY: 0 cycles
cpu0_DTLB AVERAGE dMISS LATENCY: 19.8596 cycles
cpu0_DTLB AVERAGE itMISS LATENCY: 0 cycles
cpu0_DTLB AVERAGE dtMISS LATENCY: 0 cycles
cpu0_DTLB PAGE CROSSINGS (TLB HIT):         0 
cpu0_DTLB PAGE CROSSINGS (TLB MISS):         0 
cpu0_DTLB AVERAGE MISS LATENCY: 19.8596 cycles
cpu0_STLB TOTAL       ACCESS:    1618760  HIT:    1393431  MISS:     225329  iACCESS:     395498  iHIT:     308926  iMISS:      86572  dACCESS:    1223262  dHIT:    1084505  dMISS:     138757  itACCESS:          0  itHIT:          0  itMISS:          0  dtACCESS:          0  dtHIT:          0  dtMISS:          0
cpu0_STLB LOAD         ACCESS:    1618760  HIT:    1393431  MISS:     225329  iACCESS:     395498  iHIT:     308926  iMISS:      86572  dACCESS:    1223262  dHIT:    1084505  dMISS:     138757  itACCESS:          0  itHIT:          0  itMISS:          0  dtACCESS:          0  dtHIT:          0  dtMISS:          0
cpu0_STLB RFO          ACCESS:          0  HIT:          0  MISS:          0  iACCESS:          0  iHIT:          0  iMISS:          0  dACCESS:          0  dHIT:          0  dMISS:          0  itACCESS:          0  itHIT:          0  itMISS:          0  dtACCESS:          0  dtHIT:          0  dtMISS:          0
cpu0_STLB PREFETCH     ACCESS:          0  HIT:          0  MISS:          0  iACCESS:          0  iHIT:          0  iMISS:          0  dACCESS:          0  dHIT:          0  dMISS:          0  itACCESS:          0  itHIT:          0  itMISS:          0  dtACCESS:          0  dtHIT:          0  dtMISS:          0
cpu0_STLB WRITE        ACCESS:          0  HIT:          0  MISS:          0  iACCESS:          0  iHIT:          0  iMISS:          0  dACCESS:          0  dHIT:          0  dMISS:          0  itACCESS:          0  itHIT:          0  itMISS:          0  dtACCESS:          0  dtHIT:          0  dtMISS:          0
cpu0_STLB TRANSLATION  ACCESS:          0  HIT:          0  MISS:          0  iACCESS:          0  iHIT:          0  iMISS:          0  dACCESS:          0  dHIT:          0  dMISS:          0  itACCESS:          0  itHIT:          0  itMISS:          0  dtACCESS:          0  dtHIT:          0  dtMISS:          0
cpu0_STLB PREFETCH  REQUESTED:          0  ISSUED:          0  CROSSED:          0  USEFUL:          0  USELESS:          0
cpu0_STLB AVERAGE iMISS LATENCY: 52.4444 cycles
cpu0_STLB AVERAGE dMISS LATENCY: 130.726 cycles
cpu0_STLB AVERAGE itMISS LATENCY: 0 cycles
cpu0_STLB AVERAGE dtMISS LATENCY: 0 cycles
cpu0_STLB PAGE CROSSINGS (TLB HIT):         0 
cpu0_STLB PAGE CROSSINGS (TLB MISS):         0 
cpu0_STLB AVERAGE MISS LATENCY: 183.171 cycles
cpu0_L1D TOTAL       ACCESS:   42703513  HIT:   38514857  MISS:    4188656  iACCESS:          0  iHIT:          0  iMISS:          0  dACCESS:   42417348  dHIT:   38491391  dMISS:    3925957  itACCESS:      92259  itHIT:      12708  itMISS:      79551  dtACCESS:     193906  dtHIT:      10758  dtMISS:     183148
cpu0_L1D LOAD         ACCESS:   19430030  HIT:   17632410  MISS:    1797620  iACCESS:          0  iHIT:          0  iMISS:          0  dACCESS:   19430030  dHIT:   17632410  dMISS:    1797620  itACCESS:          0  itHIT:          0  itMISS:          0  dtACCESS:          0  dtHIT:          0  dtMISS:          0
cpu0_L1D RFO          ACCESS:          0  HIT:          0  MISS:          0  iACCESS:          0  iHIT:          0  iMISS:          0  dACCESS:          0  dHIT:          0  dMISS:          0  itACCESS:          0  itHIT:          0  itMISS:          0  dtACCESS:          0  dtHIT:          0  dtMISS:          0
cpu0_L1D PREFETCH     ACCESS:   12855263  HIT:   11173532  MISS:    1681731  iACCESS:          0  iHIT:          0  iMISS:          0  dACCESS:   12855263  dHIT:   11173532  dMISS:    1681731  itACCESS:          0  itHIT:          0  itMISS:          0  dtACCESS:          0  dtHIT:          0  dtMISS:          0
cpu0_L1D WRITE        ACCESS:   10132055  HIT:    9685449  MISS:     446606  iACCESS:          0  iHIT:          0  iMISS:          0  dACCESS:   10132055  dHIT:    9685449  dMISS:     446606  itACCESS:          0  itHIT:          0  itMISS:          0  dtACCESS:          0  dtHIT:          0  dtMISS:          0
cpu0_L1D TRANSLATION  ACCESS:     286165  HIT:      23466  MISS:     262699  iACCESS:          0  iHIT:          0  iMISS:          0  dACCESS:          0  dHIT:          0  dMISS:          0  itACCESS:      92259  itHIT:      12708  itMISS:      79551  dtACCESS:     193906  dtHIT:      10758  dtMISS:     183148
cpu0_L1D PREFETCH  REQUESTED:   19430030  ISSUED:   17268518  CROSSED:          0  USEFUL:     311613  USELESS:     703720
cpu0_L1D AVERAGE iMISS LATENCY: 0 cycles
cpu0_L1D AVERAGE dMISS LATENCY: 39.3271 cycles
cpu0_L1D AVERAGE itMISS LATENCY: 2.64232 cycles
cpu0_L1D AVERAGE dtMISS LATENCY: 6.54811 cycles
cpu0_L1D PAGE CROSSINGS (TLB HIT):         0 
cpu0_L1D PAGE CROSSINGS (TLB MISS):         0 
cpu0_L1D AVERAGE MISS LATENCY: 48.5175 cycles
cpu0_L2C TOTAL       ACCESS:    7326307  HIT:    3764214  MISS:    3562093  iACCESS:    3412443  iHIT:    2084873  iMISS:    1327570  dACCESS:    3659411  dHIT:    1642126  dMISS:    2017285  itACCESS:      79551  itHIT:      15393  itMISS:      64158  dtACCESS:     174902  dtHIT:      21822  dtMISS:     153080
cpu0_L2C LOAD         ACCESS:    1737765  HIT:     931134  MISS:     806631  iACCESS:     784914  iHIT:     509287  iMISS:     275627  dACCESS:     952851  dHIT:     421847  dMISS:     531004  itACCESS:          0  itHIT:          0  itMISS:          0  dtACCESS:          0  dtHIT:          0  dtMISS:          0
cpu0_L2C RFO          ACCESS:     161061  HIT:      64280  MISS:      96781  iACCESS:          0  iHIT:          0  iMISS:          0  dACCESS:     161061  dHIT:      64280  dMISS:      96781  itACCESS:          0  itHIT:          0  itMISS:          0  dtACCESS:          0  dtHIT:          0  dtMISS:          0
cpu0_L2C PREFETCH     ACCESS:    4897861  HIT:    2457374  MISS:    2440487  iACCESS:    2627529  iHIT:    1575586  iMISS:    1051943  dACCESS:    2270332  dHIT:     881788  dMISS:    1388544  itACCESS:          0  itHIT:          0  itMISS:          0  dtACCESS:          0  dtHIT:          0  dtMISS:          0
cpu0_L2C WRITE        ACCESS:     275167  HIT:     274211  MISS:        956  iACCESS:          0  iHIT:          0  iMISS:          0  dACCESS:     275167  dHIT:     274211  dMISS:        956  itACCESS:          0  itHIT:          0  itMISS:          0  dtACCESS:          0  dtHIT:          0  dtMISS:          0
cpu0_L2C TRANSLATION  ACCESS:     254453  HIT:      37215  MISS:     217238  iACCESS:          0  iHIT:          0  iMISS:          0  dACCESS:          0  dHIT:          0  dMISS:          0  itACCESS:      79551  itHIT:      15393  itMISS:      64158  dtACCESS:     174902  dtHIT:      21822  dtMISS:     153080
cpu0_L2C PREFETCH  REQUESTED:    1525240  ISSUED:    1525209  CROSSED:          0  USEFUL:     375310  USELESS:     296073
cpu0_L2C AVERAGE iMISS LATENCY: 33.5041 cycles
cpu0_L2C AVERAGE dMISS LATENCY: 59.1873 cycles
cpu0_L2C AVERAGE itMISS LATENCY: 2.88743 cycles
cpu0_L2C AVERAGE dtMISS LATENCY: 7.21233 cycles
cpu0_L2C PAGE CROSSINGS (TLB HIT):         0 
cpu0_L2C PAGE CROSSINGS (TLB MISS):         0 
cpu0_L2C AVERAGE MISS LATENCY: 102.792 cycles
LLC TOTAL       ACCESS:    3521662  HIT:    1643568  MISS:    1878094  iACCESS:    1248088  iHIT:     607293  iMISS:     640795  dACCESS:    2056336  dHIT:     990386  dMISS:    1065950  itACCESS:      64158  itHIT:      12921  itMISS:      51237  dtACCESS:     153080  dtHIT:      32968  dtMISS:     120112
LLC LOAD         ACCESS:     800812  HIT:     395416  MISS:     405396  iACCESS:     274348  iHIT:     138339  iMISS:     136009  dACCESS:     526464  dHIT:     257077  dMISS:     269387  itACCESS:          0  itHIT:          0  itMISS:          0  dtACCESS:          0  dtHIT:          0  dtMISS:          0
LLC RFO          ACCESS:      96774  HIT:      37718  MISS:      59056  iACCESS:          0  iHIT:          0  iMISS:          0  dACCESS:      96774  dHIT:      37718  dMISS:      59056  itACCESS:          0  itHIT:          0  itMISS:          0  dtACCESS:          0  dtHIT:          0  dtMISS:          0
LLC PREFETCH     ACCESS:    2260797  HIT:    1026311  MISS:    1234486  iACCESS:     973740  iHIT:     468954  iMISS:     504786  dACCESS:    1287057  dHIT:     557357  dMISS:     729700  itACCESS:          0  itHIT:          0  itMISS:          0  dtACCESS:          0  dtHIT:          0  dtMISS:          0
LLC WRITE        ACCESS:     146041  HIT:     138234  MISS:       7807  iACCESS:          0  iHIT:          0  iMISS:          0  dACCESS:     146041  dHIT:     138234  dMISS:       7807  itACCESS:          0  itHIT:          0  itMISS:          0  dtACCESS:          0  dtHIT:          0  dtMISS:          0
LLC TRANSLATION  ACCESS:     217238  HIT:      45889  MISS:     171349  iACCESS:          0  iHIT:          0  iMISS:          0  dACCESS:          0  dHIT:          0  dMISS:          0  itACCESS:      64158  itHIT:      12921  itMISS:      51237  dtACCESS:     153080  dtHIT:      32968  dtMISS:     120112
LLC PREFETCH  REQUESTED:          0  ISSUED:          0  CROSSED:          0  USEFUL:          0  USELESS:          0
LLC AVERAGE iMISS LATENCY: 50.5499 cycles
LLC AVERAGE dMISS LATENCY: 93.2778 cycles
LLC AVERAGE itMISS LATENCY: 4.80244 cycles
LLC AVERAGE dtMISS LATENCY: 12.0744 cycles
LLC PAGE CROSSINGS (TLB HIT):         0 
LLC PAGE CROSSINGS (TLB MISS):         0 
LLC AVERAGE MISS LATENCY: 160.705 cycles

PageTableWalker TOTAL       ACCESS:     114827  
PageTableWalker AVERAGE LATENCY: 5.02825 cycles
PageTableWalker TOTAL LATENCY: 577378 cycles

DRAM Statistics
Channel 0
 RQ ROW_BUFFER_HIT:     502818
  ROW_BUFFER_MISS:    1350163
 AVG DBUS CONGESTED CYCLE:    3.63527
 WQ ROW_BUFFER_HIT:      36065
  ROW_BUFFER_MISS:      25838  FULL:          0

