last_page:0x200000000000000
VMEM_RES_CAP:0x100000
PAGE_SIZE:4096
LOG2_PAGE_SIZE:12
LOG2_PAGE_TABLE_SIZE:9
page_table_levels:5
WARNING: physical memory size is smaller than virtual memory size
FDiP enabled with aggresivity 16

*** ChampSim Multicore Out-of-Order Simulator ***

Warmup Instructions: 50000000
Simulation Instructions: 100000000
Number of CPUs: 1
Small page size: 4096
Large page size: 2097152

CPU 0 Bimodal branch predictor
Basic BTB sets: 1024 ways: 8 indirect buffer size: 4096 RAS size: 64
Instruction page size distrubution: 0
Loading instruction page size distribution from /home/bsc/bsc018186/scratch/itp_asplos25_AE/dump/srv742_ap.pdst
Data page size distrubution: 0
Loading data page size distribution from /home/bsc/bsc018186/scratch/itp_asplos25_AE/dump/srv742_ap.pdst
cpu0_L2C IP-based stride prefetcher
cpu0_L1D next line prefetcher
CHiRPing...
cpu0_L1I next line prefetcher
Off-chip DRAM Size: 4 GiB Channels: 1 Width: 64-bit Data Rate: 3200 MT/s
Heartbeat CPU 0 instructions: 10000000 cycles: 2933098 heartbeat IPC: 3.40937 cumulative IPC: 3.40937 (Simulation time: 0 hr 0 min 41 sec) 
Heartbeat CPU 0 instructions: 20000002 cycles: 5443243 heartbeat IPC: 3.98384 cumulative IPC: 3.67429 (Simulation time: 0 hr 1 min 18 sec) 
Heartbeat CPU 0 instructions: 30000003 cycles: 7943505 heartbeat IPC: 3.99959 cumulative IPC: 3.77668 (Simulation time: 0 hr 1 min 59 sec) 
Heartbeat CPU 0 instructions: 40000000 cycles: 10444126 heartbeat IPC: 3.99901 cumulative IPC: 3.82991 (Simulation time: 0 hr 2 min 40 sec) 
Heartbeat CPU 0 instructions: 50000001 cycles: 13186373 heartbeat IPC: 3.64665 cumulative IPC: 3.7918 (Simulation time: 0 hr 3 min 22 sec) 
Warmup finished CPU 0 instructions: 50000001 cycles: 13186374 cumulative IPC: 3.7918 (Simulation time: 0 hr 3 min 22 sec) 

Warmup complete CPU 0 instructions: 50000001 cycles: 13186374 (Simulation time: 0 hr 3 min 22 sec) 

Heartbeat CPU 0 instructions: 60000000 cycles: 34979385 heartbeat IPC: 0.458863 cumulative IPC: 0.458863 (Simulation time: 0 hr 4 min 37 sec) 
Heartbeat CPU 0 instructions: 70000003 cycles: 56255140 heartbeat IPC: 0.470019 cumulative IPC: 0.464374 (Simulation time: 0 hr 5 min 51 sec) 
Heartbeat CPU 0 instructions: 80000004 cycles: 71210367 heartbeat IPC: 0.668663 cumulative IPC: 0.517028 (Simulation time: 0 hr 7 min 0 sec) 
Heartbeat CPU 0 instructions: 90000004 cycles: 92399949 heartbeat IPC: 0.471931 cumulative IPC: 0.504964 (Simulation time: 0 hr 8 min 15 sec) 
Heartbeat CPU 0 instructions: 100000003 cycles: 101036901 heartbeat IPC: 1.15782 cumulative IPC: 0.569149 (Simulation time: 0 hr 9 min 6 sec) 
*** Reached end of trace: /gpfs/projects/bsc18/MN4/bsc18/romol/ChampSim/traces/qualcomm_srv/srv742_ap.champsimtrace.xz
Heartbeat CPU 0 instructions: 110000002 cycles: 113766844 heartbeat IPC: 0.78555 cumulative IPC: 0.596538 (Simulation time: 0 hr 10 min 12 sec) 
Heartbeat CPU 0 instructions: 120000003 cycles: 121424339 heartbeat IPC: 1.30592 cumulative IPC: 0.646724 (Simulation time: 0 hr 11 min 4 sec) 
Heartbeat CPU 0 instructions: 130000003 cycles: 140389755 heartbeat IPC: 0.527276 cumulative IPC: 0.628915 (Simulation time: 0 hr 12 min 15 sec) 
Heartbeat CPU 0 instructions: 140000003 cycles: 162704244 heartbeat IPC: 0.44814 cumulative IPC: 0.601935 (Simulation time: 0 hr 13 min 34 sec) 
Heartbeat CPU 0 instructions: 150000002 cycles: 179508906 heartbeat IPC: 0.595073 cumulative IPC: 0.601242 (Simulation time: 0 hr 14 min 47 sec) 
Simulation finished CPU 0 instructions: 100000001 cycles: 166322533 cumulative IPC: 0.601242 (Simulation time: 0 hr 14 min 47 sec) 

Simulation complete CPU 0 instructions: 100000001 cycles: 166322533 (Simulation time: 0 hr 14 min 47 sec) 


ChampSim completed all CPUs

Saving instructions large page distribution to /home/bsc/bsc018186/scratch/itp_asplos25_AE/dump/srv742_ap.pdst...
Saving data large page distribution to /home/bsc/bsc018186/scratch/itp_asplos25_AE/dump/srv742_ap.pdst...
=== Simulation ===
CPU 0 runs /gpfs/projects/bsc18/MN4/bsc18/romol/ChampSim/traces/qualcomm_srv/srv742_ap.champsimtrace.xz

Region of Interest Statistics

CPU 0 cumulative IPC: 0.601242 instructions: 100000001 cycles: 166322533
CPU 0 Branch Prediction Accuracy: 83.9656% MPKI: 32.2638 Average ROB Occupancy at Mispredict: 12.4978
Branch type MPKI
BRANCH_DIRECT_JUMP: 0.83198
BRANCH_INDIRECT: 16.9722
BRANCH_CONDITIONAL: 10.7476
BRANCH_DIRECT_CALL: 1.50647
BRANCH_INDIRECT_CALL: 1.05262
BRANCH_RETURN: 1.15293

Instructions large pages: 0
Instructions small pages: 1649
Large page distribution for instructions: 0%

Data large pages: 0
Data small pages: 6640
Large page distribution for data: 0%

cpu0_L1I TOTAL       ACCESS:   30308927  HIT:   24810064  MISS:    5498863  iACCESS:   30308927  iHIT:   24810064  iMISS:    5498863  dACCESS:          0  dHIT:          0  dMISS:          0  itACCESS:          0  itHIT:          0  itMISS:          0  dtACCESS:          0  dtHIT:          0  dtMISS:          0
cpu0_L1I LOAD         ACCESS:    6461526  HIT:    4928243  MISS:    1533283  iACCESS:    6461526  iHIT:    4928243  iMISS:    1533283  dACCESS:          0  dHIT:          0  dMISS:          0  itACCESS:          0  itHIT:          0  itMISS:          0  dtACCESS:          0  dtHIT:          0  dtMISS:          0
cpu0_L1I RFO          ACCESS:          0  HIT:          0  MISS:          0  iACCESS:          0  iHIT:          0  iMISS:          0  dACCESS:          0  dHIT:          0  dMISS:          0  itACCESS:          0  itHIT:          0  itMISS:          0  dtACCESS:          0  dtHIT:          0  dtMISS:          0
cpu0_L1I PREFETCH     ACCESS:   23847401  HIT:   19881821  MISS:    3965580  iACCESS:   23847401  iHIT:   19881821  iMISS:    3965580  dACCESS:          0  dHIT:          0  dMISS:          0  itACCESS:          0  itHIT:          0  itMISS:          0  dtACCESS:          0  dtHIT:          0  dtMISS:          0
cpu0_L1I WRITE        ACCESS:          0  HIT:          0  MISS:          0  iACCESS:          0  iHIT:          0  iMISS:          0  dACCESS:          0  dHIT:          0  dMISS:          0  itACCESS:          0  itHIT:          0  itMISS:          0  dtACCESS:          0  dtHIT:          0  dtMISS:          0
cpu0_L1I TRANSLATION  ACCESS:          0  HIT:          0  MISS:          0  iACCESS:          0  iHIT:          0  iMISS:          0  dACCESS:          0  dHIT:          0  dMISS:          0  itACCESS:          0  itHIT:          0  itMISS:          0  dtACCESS:          0  dtHIT:          0  dtMISS:          0
cpu0_L1I PREFETCH  REQUESTED:   25048722  ISSUED:   25047879  CROSSED:          0  USEFUL:    1269940  USELESS:     479921
cpu0_L1I AVERAGE iMISS LATENCY: 20.9504 cycles
cpu0_L1I AVERAGE dMISS LATENCY: 0 cycles
cpu0_L1I AVERAGE itMISS LATENCY: 0 cycles
cpu0_L1I AVERAGE dtMISS LATENCY: 0 cycles
cpu0_L1I PAGE CROSSINGS (TLB HIT):         0 
cpu0_L1I PAGE CROSSINGS (TLB MISS):         0 
cpu0_L1I AVERAGE MISS LATENCY: 20.9504 cycles
cpu0_ITLB TOTAL       ACCESS:   25951101  HIT:   24696962  MISS:    1254139  iACCESS:   25951101  iHIT:   24696962  iMISS:    1254139  dACCESS:          0  dHIT:          0  dMISS:          0  itACCESS:          0  itHIT:          0  itMISS:          0  dtACCESS:          0  dtHIT:          0  dtMISS:          0
cpu0_ITLB LOAD         ACCESS:   25951101  HIT:   24696962  MISS:    1254139  iACCESS:   25951101  iHIT:   24696962  iMISS:    1254139  dACCESS:          0  dHIT:          0  dMISS:          0  itACCESS:          0  itHIT:          0  itMISS:          0  dtACCESS:          0  dtHIT:          0  dtMISS:          0
cpu0_ITLB RFO          ACCESS:          0  HIT:          0  MISS:          0  iACCESS:          0  iHIT:          0  iMISS:          0  dACCESS:          0  dHIT:          0  dMISS:          0  itACCESS:          0  itHIT:          0  itMISS:          0  dtACCESS:          0  dtHIT:          0  dtMISS:          0
cpu0_ITLB PREFETCH     ACCESS:          0  HIT:          0  MISS:          0  iACCESS:          0  iHIT:          0  iMISS:          0  dACCESS:          0  dHIT:          0  dMISS:          0  itACCESS:          0  itHIT:          0  itMISS:          0  dtACCESS:          0  dtHIT:          0  dtMISS:          0
cpu0_ITLB WRITE        ACCESS:          0  HIT:          0  MISS:          0  iACCESS:          0  iHIT:          0  iMISS:          0  dACCESS:          0  dHIT:          0  dMISS:          0  itACCESS:          0  itHIT:          0  itMISS:          0  dtACCESS:          0  dtHIT:          0  dtMISS:          0
cpu0_ITLB TRANSLATION  ACCESS:          0  HIT:          0  MISS:          0  iACCESS:          0  iHIT:          0  iMISS:          0  dACCESS:          0  dHIT:          0  dMISS:          0  itACCESS:          0  itHIT:          0  itMISS:          0  dtACCESS:          0  dtHIT:          0  dtMISS:          0
cpu0_ITLB PREFETCH  REQUESTED:          0  ISSUED:          0  CROSSED:          0  USEFUL:     217461  USELESS:      42860
cpu0_ITLB AVERAGE iMISS LATENCY: 5.08039 cycles
cpu0_ITLB AVERAGE dMISS LATENCY: 0 cycles
cpu0_ITLB AVERAGE itMISS LATENCY: 0 cycles
cpu0_ITLB AVERAGE dtMISS LATENCY: 0 cycles
cpu0_ITLB PAGE CROSSINGS (TLB HIT):         0 
cpu0_ITLB PAGE CROSSINGS (TLB MISS):         0 
cpu0_ITLB AVERAGE MISS LATENCY: 5.08039 cycles
cpu0_DTLB TOTAL       ACCESS:   32548315  HIT:   27382676  MISS:    5165639  iACCESS:          0  iHIT:          0  iMISS:          0  dACCESS:   32548315  dHIT:   27382676  dMISS:    5165639  itACCESS:          0  itHIT:          0  itMISS:          0  dtACCESS:          0  dtHIT:          0  dtMISS:          0
cpu0_DTLB LOAD         ACCESS:   32548315  HIT:   27382676  MISS:    5165639  iACCESS:          0  iHIT:          0  iMISS:          0  dACCESS:   32548315  dHIT:   27382676  dMISS:    5165639  itACCESS:          0  itHIT:          0  itMISS:          0  dtACCESS:          0  dtHIT:          0  dtMISS:          0
cpu0_DTLB RFO          ACCESS:          0  HIT:          0  MISS:          0  iACCESS:          0  iHIT:          0  iMISS:          0  dACCESS:          0  dHIT:          0  dMISS:          0  itACCESS:          0  itHIT:          0  itMISS:          0  dtACCESS:          0  dtHIT:          0  dtMISS:          0
cpu0_DTLB PREFETCH     ACCESS:          0  HIT:          0  MISS:          0  iACCESS:          0  iHIT:          0  iMISS:          0  dACCESS:          0  dHIT:          0  dMISS:          0  itACCESS:          0  itHIT:          0  itMISS:          0  dtACCESS:          0  dtHIT:          0  dtMISS:          0
cpu0_DTLB WRITE        ACCESS:          0  HIT:          0  MISS:          0  iACCESS:          0  iHIT:          0  iMISS:          0  dACCESS:          0  dHIT:          0  dMISS:          0  itACCESS:          0  itHIT:          0  itMISS:          0  dtACCESS:          0  dtHIT:          0  dtMISS:          0
cpu0_DTLB TRANSLATION  ACCESS:          0  HIT:          0  MISS:          0  iACCESS:          0  iHIT:          0  iMISS:          0  dACCESS:          0  dHIT:          0  dMISS:          0  itACCESS:          0  itHIT:          0  itMISS:          0  dtACCESS:          0  dtHIT:          0  dtMISS:          0
cpu0_DTLB PREFETCH  REQUESTED:          0  ISSUED:          0  CROSSED:          0  USEFUL:          0  USELESS:          0
cpu0_DTLB AVERAGE iMISS LATENCY: 0 cycles
cpu0_DTLB AVERAGE dMISS LATENCY: 6.70453 cycles
cpu0_DTLB AVERAGE itMISS LATENCY: 0 cycles
cpu0_DTLB AVERAGE dtMISS LATENCY: 0 cycles
cpu0_DTLB PAGE CROSSINGS (TLB HIT):         0 
cpu0_DTLB PAGE CROSSINGS (TLB MISS):         0 
cpu0_DTLB AVERAGE MISS LATENCY: 6.70453 cycles
cpu0_STLB TOTAL       ACCESS:    2922943  HIT:    2744444  MISS:     178499  iACCESS:     260329  iHIT:     200019  iMISS:      60310  dACCESS:    2662614  dHIT:    2544425  dMISS:     118189  itACCESS:          0  itHIT:          0  itMISS:          0  dtACCESS:          0  dtHIT:          0  dtMISS:          0
cpu0_STLB LOAD         ACCESS:    2922943  HIT:    2744444  MISS:     178499  iACCESS:     260329  iHIT:     200019  iMISS:      60310  dACCESS:    2662614  dHIT:    2544425  dMISS:     118189  itACCESS:          0  itHIT:          0  itMISS:          0  dtACCESS:          0  dtHIT:          0  dtMISS:          0
cpu0_STLB RFO          ACCESS:          0  HIT:          0  MISS:          0  iACCESS:          0  iHIT:          0  iMISS:          0  dACCESS:          0  dHIT:          0  dMISS:          0  itACCESS:          0  itHIT:          0  itMISS:          0  dtACCESS:          0  dtHIT:          0  dtMISS:          0
cpu0_STLB PREFETCH     ACCESS:          0  HIT:          0  MISS:          0  iACCESS:          0  iHIT:          0  iMISS:          0  dACCESS:          0  dHIT:          0  dMISS:          0  itACCESS:          0  itHIT:          0  itMISS:          0  dtACCESS:          0  dtHIT:          0  dtMISS:          0
cpu0_STLB WRITE        ACCESS:          0  HIT:          0  MISS:          0  iACCESS:          0  iHIT:          0  iMISS:          0  dACCESS:          0  dHIT:          0  dMISS:          0  itACCESS:          0  itHIT:          0  itMISS:          0  dtACCESS:          0  dtHIT:          0  dtMISS:          0
cpu0_STLB TRANSLATION  ACCESS:          0  HIT:          0  MISS:          0  iACCESS:          0  iHIT:          0  iMISS:          0  dACCESS:          0  dHIT:          0  dMISS:          0  itACCESS:          0  itHIT:          0  itMISS:          0  dtACCESS:          0  dtHIT:          0  dtMISS:          0
cpu0_STLB PREFETCH  REQUESTED:          0  ISSUED:          0  CROSSED:          0  USEFUL:          0  USELESS:          0
cpu0_STLB AVERAGE iMISS LATENCY: 24.0586 cycles
cpu0_STLB AVERAGE dMISS LATENCY: 72.7968 cycles
cpu0_STLB AVERAGE itMISS LATENCY: 0 cycles
cpu0_STLB AVERAGE dtMISS LATENCY: 0 cycles
cpu0_STLB PAGE CROSSINGS (TLB HIT):         0 
cpu0_STLB PAGE CROSSINGS (TLB MISS):         0 
cpu0_STLB AVERAGE MISS LATENCY: 96.8554 cycles
cpu0_L1D TOTAL       ACCESS:   51328232  HIT:   41536573  MISS:    9791659  iACCESS:          0  iHIT:          0  iMISS:          0  dACCESS:   51090067  dHIT:   41518350  dMISS:    9571717  itACCESS:      67649  itHIT:       8761  itMISS:      58888  dtACCESS:     170516  dtHIT:       9462  dtMISS:     161054
cpu0_L1D LOAD         ACCESS:   26178459  HIT:   20240547  MISS:    5937912  iACCESS:          0  iHIT:          0  iMISS:          0  dACCESS:   26178459  dHIT:   20240547  dMISS:    5937912  itACCESS:          0  itHIT:          0  itMISS:          0  dtACCESS:          0  dtHIT:          0  dtMISS:          0
cpu0_L1D RFO          ACCESS:          0  HIT:          0  MISS:          0  iACCESS:          0  iHIT:          0  iMISS:          0  dACCESS:          0  dHIT:          0  dMISS:          0  itACCESS:          0  itHIT:          0  itMISS:          0  dtACCESS:          0  dtHIT:          0  dtMISS:          0
cpu0_L1D PREFETCH     ACCESS:   15303339  HIT:   12233213  MISS:    3070126  iACCESS:          0  iHIT:          0  iMISS:          0  dACCESS:   15303339  dHIT:   12233213  dMISS:    3070126  itACCESS:          0  itHIT:          0  itMISS:          0  dtACCESS:          0  dtHIT:          0  dtMISS:          0
cpu0_L1D WRITE        ACCESS:    9608269  HIT:    9044590  MISS:     563679  iACCESS:          0  iHIT:          0  iMISS:          0  dACCESS:    9608269  dHIT:    9044590  dMISS:     563679  itACCESS:          0  itHIT:          0  itMISS:          0  dtACCESS:          0  dtHIT:          0  dtMISS:          0
cpu0_L1D TRANSLATION  ACCESS:     238165  HIT:      18223  MISS:     219942  iACCESS:          0  iHIT:          0  iMISS:          0  dACCESS:          0  dHIT:          0  dMISS:          0  itACCESS:      67649  itHIT:       8761  itMISS:      58888  dtACCESS:     170516  dtHIT:       9462  dtMISS:     161054
cpu0_L1D PREFETCH  REQUESTED:   26178459  ISSUED:   19245248  CROSSED:          0  USEFUL:     260146  USELESS:     635363
cpu0_L1D AVERAGE iMISS LATENCY: 0 cycles
cpu0_L1D AVERAGE dMISS LATENCY: 21.8404 cycles
cpu0_L1D AVERAGE itMISS LATENCY: 0.375146 cycles
cpu0_L1D AVERAGE dtMISS LATENCY: 1.13781 cycles
cpu0_L1D PAGE CROSSINGS (TLB HIT):         0 
cpu0_L1D PAGE CROSSINGS (TLB MISS):         0 
cpu0_L1D AVERAGE MISS LATENCY: 23.3534 cycles
cpu0_L2C TOTAL       ACCESS:    7918953  HIT:    2292085  MISS:    5626868  iACCESS:    2239116  iHIT:     521985  iMISS:    1717131  dACCESS:    5480419  dHIT:    1660854  dMISS:    3819565  itACCESS:      56501  itHIT:      34873  itMISS:      21628  dtACCESS:     142917  dtHIT:      74373  dtMISS:      68544
cpu0_L2C LOAD         ACCESS:    3905993  HIT:    1343201  MISS:    2562792  iACCESS:     507627  iHIT:      93929  iMISS:     413698  dACCESS:    3398366  dHIT:    1249272  dMISS:    2149094  itACCESS:          0  itHIT:          0  itMISS:          0  dtACCESS:          0  dtHIT:          0  dtMISS:          0
cpu0_L2C RFO          ACCESS:     170839  HIT:      29706  MISS:     141133  iACCESS:          0  iHIT:          0  iMISS:          0  dACCESS:     170839  dHIT:      29706  dMISS:     141133  itACCESS:          0  itHIT:          0  itMISS:          0  dtACCESS:          0  dtHIT:          0  dtMISS:          0
cpu0_L2C PREFETCH     ACCESS:    3418612  HIT:     716156  MISS:    2702456  iACCESS:    1731489  iHIT:     428056  iMISS:    1303433  dACCESS:    1687123  dHIT:     288100  dMISS:    1399023  itACCESS:          0  itHIT:          0  itMISS:          0  dtACCESS:          0  dtHIT:          0  dtMISS:          0
cpu0_L2C WRITE        ACCESS:     224091  HIT:      93776  MISS:     130315  iACCESS:          0  iHIT:          0  iMISS:          0  dACCESS:     224091  dHIT:      93776  dMISS:     130315  itACCESS:          0  itHIT:          0  itMISS:          0  dtACCESS:          0  dtHIT:          0  dtMISS:          0
cpu0_L2C TRANSLATION  ACCESS:     199418  HIT:     109246  MISS:      90172  iACCESS:          0  iHIT:          0  iMISS:          0  dACCESS:          0  dHIT:          0  dMISS:          0  itACCESS:      56501  itHIT:      34873  itMISS:      21628  dtACCESS:     142917  dtHIT:      74373  dtMISS:      68544
cpu0_L2C PREFETCH  REQUESTED:     925338  ISSUED:     925337  CROSSED:          0  USEFUL:     237196  USELESS:     298658
cpu0_L2C AVERAGE iMISS LATENCY: 16.989 cycles
cpu0_L2C AVERAGE dMISS LATENCY: 38.3002 cycles
cpu0_L2C AVERAGE itMISS LATENCY: 0.558349 cycles
cpu0_L2C AVERAGE dtMISS LATENCY: 1.73823 cycles
cpu0_L2C PAGE CROSSINGS (TLB HIT):         0 
cpu0_L2C PAGE CROSSINGS (TLB MISS):         0 
cpu0_L2C AVERAGE MISS LATENCY: 57.5857 cycles
LLC TOTAL       ACCESS:    5507537  HIT:    4143501  MISS:    1364036  iACCESS:    1671494  iHIT:    1243182  iMISS:     428312  dACCESS:    3745871  dHIT:    2869887  dMISS:     875984  itACCESS:      21628  itHIT:       6248  itMISS:      15380  dtACCESS:      68544  dtHIT:      24184  dtMISS:      44360
LLC LOAD         ACCESS:    2555018  HIT:    2213300  MISS:     341718  iACCESS:     412841  iHIT:     326099  iMISS:      86742  dACCESS:    2142177  dHIT:    1887201  dMISS:     254976  itACCESS:          0  itHIT:          0  itMISS:          0  dtACCESS:          0  dtHIT:          0  dtMISS:          0
LLC RFO          ACCESS:     141128  HIT:      83969  MISS:      57159  iACCESS:          0  iHIT:          0  iMISS:          0  dACCESS:     141128  dHIT:      83969  dMISS:      57159  itACCESS:          0  itHIT:          0  itMISS:          0  dtACCESS:          0  dtHIT:          0  dtMISS:          0
LLC PREFETCH     ACCESS:    2576138  HIT:    1679463  MISS:     896675  iACCESS:    1258653  iHIT:     917083  iMISS:     341570  dACCESS:    1317485  dHIT:     762380  dMISS:     555105  itACCESS:          0  itHIT:          0  itMISS:          0  dtACCESS:          0  dtHIT:          0  dtMISS:          0
LLC WRITE        ACCESS:     145081  HIT:     136337  MISS:       8744  iACCESS:          0  iHIT:          0  iMISS:          0  dACCESS:     145081  dHIT:     136337  dMISS:       8744  itACCESS:          0  itHIT:          0  itMISS:          0  dtACCESS:          0  dtHIT:          0  dtMISS:          0
LLC TRANSLATION  ACCESS:      90172  HIT:      30432  MISS:      59740  iACCESS:          0  iHIT:          0  iMISS:          0  dACCESS:          0  dHIT:          0  dMISS:          0  itACCESS:      21628  itHIT:       6248  itMISS:      15380  dtACCESS:      68544  dtHIT:      24184  dtMISS:      44360
LLC PREFETCH  REQUESTED:          0  ISSUED:          0  CROSSED:          0  USEFUL:          0  USELESS:          0
LLC AVERAGE iMISS LATENCY: 46.3174 cycles
LLC AVERAGE dMISS LATENCY: 107.615 cycles
LLC AVERAGE itMISS LATENCY: 1.99159 cycles
LLC AVERAGE dtMISS LATENCY: 6.18614 cycles
LLC PAGE CROSSINGS (TLB HIT):         0 
LLC PAGE CROSSINGS (TLB MISS):         0 
LLC AVERAGE MISS LATENCY: 162.11 cycles

PageTableWalker TOTAL       ACCESS:      87193  
PageTableWalker AVERAGE LATENCY: 4.40441 cycles
PageTableWalker TOTAL LATENCY: 384033 cycles

DRAM Statistics
Channel 0
 RQ ROW_BUFFER_HIT:     406422
  ROW_BUFFER_MISS:     938518
 AVG DBUS CONGESTED CYCLE:    3.64988
 WQ ROW_BUFFER_HIT:      31270
  ROW_BUFFER_MISS:      29987  FULL:          0

