last_page:0x200000000000000
VMEM_RES_CAP:0x100000
PAGE_SIZE:4096
LOG2_PAGE_SIZE:12
LOG2_PAGE_TABLE_SIZE:9
page_table_levels:5
WARNING: physical memory size is smaller than virtual memory size
FDiP enabled with aggresivity 16

*** ChampSim Multicore Out-of-Order Simulator ***

Warmup Instructions: 50000000
Simulation Instructions: 100000000
Number of CPUs: 1
Small page size: 4096
Large page size: 2097152

CPU 0 Bimodal branch predictor
Basic BTB sets: 1024 ways: 8 indirect buffer size: 4096 RAS size: 64
Instruction page size distrubution: 0
Loading instruction page size distribution from /home/bsc/bsc018186/scratch/itp_asplos25_AE/dump/srv704_ap.pdst
Data page size distrubution: 0
Loading data page size distribution from /home/bsc/bsc018186/scratch/itp_asplos25_AE/dump/srv704_ap.pdst
cpu0_L2C IP-based stride prefetcher
cpu0_L1D next line prefetcher
cpu0_STLB using iTP with max lru@8
cpu0_STLB using iTP with instr@0 and data@2
Init sat counter with 3 bits (max:50).
cpu0_L1I next line prefetcher
Off-chip DRAM Size: 4 GiB Channels: 1 Width: 64-bit Data Rate: 3200 MT/s
Heartbeat CPU 0 instructions: 10000001 cycles: 2500194 heartbeat IPC: 3.9997 cumulative IPC: 3.9997 (Simulation time: 0 hr 0 min 37 sec) 
Heartbeat CPU 0 instructions: 20000003 cycles: 5000240 heartbeat IPC: 3.99993 cumulative IPC: 3.99981 (Simulation time: 0 hr 1 min 16 sec) 
Heartbeat CPU 0 instructions: 30000001 cycles: 7500241 heartbeat IPC: 4 cumulative IPC: 3.99988 (Simulation time: 0 hr 1 min 55 sec) 
Heartbeat CPU 0 instructions: 40000003 cycles: 10000256 heartbeat IPC: 3.99998 cumulative IPC: 3.9999 (Simulation time: 0 hr 2 min 35 sec) 
Heartbeat CPU 0 instructions: 50000001 cycles: 12500319 heartbeat IPC: 3.9999 cumulative IPC: 3.9999 (Simulation time: 0 hr 3 min 15 sec) 
Warmup finished CPU 0 instructions: 50000001 cycles: 12500320 cumulative IPC: 3.9999 (Simulation time: 0 hr 3 min 15 sec) 

Warmup complete CPU 0 instructions: 50000001 cycles: 12500320 (Simulation time: 0 hr 3 min 15 sec) 

Heartbeat CPU 0 instructions: 60000001 cycles: 26904849 heartbeat IPC: 0.694227 cumulative IPC: 0.694227 (Simulation time: 0 hr 4 min 18 sec) 
Heartbeat CPU 0 instructions: 70000003 cycles: 33079008 heartbeat IPC: 1.61966 cumulative IPC: 0.97188 (Simulation time: 0 hr 5 min 11 sec) 
Heartbeat CPU 0 instructions: 80000002 cycles: 47535382 heartbeat IPC: 0.691737 cumulative IPC: 0.856286 (Simulation time: 0 hr 6 min 16 sec) 
Heartbeat CPU 0 instructions: 90000003 cycles: 63134945 heartbeat IPC: 0.641044 cumulative IPC: 0.789974 (Simulation time: 0 hr 7 min 23 sec) 
Heartbeat CPU 0 instructions: 100000001 cycles: 78184422 heartbeat IPC: 0.664475 cumulative IPC: 0.76122 (Simulation time: 0 hr 8 min 28 sec) 
*** Reached end of trace: /gpfs/projects/bsc18/MN4/bsc18/romol/ChampSim/traces/qualcomm_srv/srv704_ap.champsimtrace.xz
Heartbeat CPU 0 instructions: 110000002 cycles: 94157208 heartbeat IPC: 0.626065 cumulative IPC: 0.734782 (Simulation time: 0 hr 9 min 35 sec) 
Heartbeat CPU 0 instructions: 120000004 cycles: 110084620 heartbeat IPC: 0.627849 cumulative IPC: 0.717329 (Simulation time: 0 hr 10 min 41 sec) 
Heartbeat CPU 0 instructions: 130000002 cycles: 125500175 heartbeat IPC: 0.648696 cumulative IPC: 0.707966 (Simulation time: 0 hr 11 min 46 sec) 
Heartbeat CPU 0 instructions: 140000001 cycles: 140548387 heartbeat IPC: 0.664531 cumulative IPC: 0.702862 (Simulation time: 0 hr 12 min 50 sec) 
Heartbeat CPU 0 instructions: 150000003 cycles: 156201290 heartbeat IPC: 0.63886 cumulative IPC: 0.69589 (Simulation time: 0 hr 13 min 56 sec) 
Simulation finished CPU 0 instructions: 100000002 cycles: 143700971 cumulative IPC: 0.69589 (Simulation time: 0 hr 13 min 56 sec) 

Simulation complete CPU 0 instructions: 100000002 cycles: 143700971 (Simulation time: 0 hr 13 min 56 sec) 


ChampSim completed all CPUs

Saving instructions large page distribution to /home/bsc/bsc018186/scratch/itp_asplos25_AE/dump/srv704_ap.pdst...
Saving data large page distribution to /home/bsc/bsc018186/scratch/itp_asplos25_AE/dump/srv704_ap.pdst...
=== Simulation ===
CPU 0 runs /gpfs/projects/bsc18/MN4/bsc18/romol/ChampSim/traces/qualcomm_srv/srv704_ap.champsimtrace.xz

Region of Interest Statistics

CPU 0 cumulative IPC: 0.69589 instructions: 100000002 cycles: 143700971
CPU 0 Branch Prediction Accuracy: 85.2403% MPKI: 28.2805 Average ROB Occupancy at Mispredict: 13.7606
Branch type MPKI
BRANCH_DIRECT_JUMP: 0.94631
BRANCH_INDIRECT: 14.5697
BRANCH_CONDITIONAL: 9.29308
BRANCH_DIRECT_CALL: 1.7075
BRANCH_INDIRECT_CALL: 0.53942
BRANCH_RETURN: 1.22449

Instructions large pages: 0
Instructions small pages: 10107
Large page distribution for instructions: 0%

Data large pages: 0
Data small pages: 9080
Large page distribution for data: 0%

cpu0_L1I TOTAL       ACCESS:   34344107  HIT:   27350651  MISS:    6993456  iACCESS:   34344107  iHIT:   27350651  iMISS:    6993456  dACCESS:          0  dHIT:          0  dMISS:          0  itACCESS:          0  itHIT:          0  itMISS:          0  dtACCESS:          0  dtHIT:          0  dtMISS:          0
cpu0_L1I LOAD         ACCESS:    9314402  HIT:    7352128  MISS:    1962274  iACCESS:    9314402  iHIT:    7352128  iMISS:    1962274  dACCESS:          0  dHIT:          0  dMISS:          0  itACCESS:          0  itHIT:          0  itMISS:          0  dtACCESS:          0  dtHIT:          0  dtMISS:          0
cpu0_L1I RFO          ACCESS:          0  HIT:          0  MISS:          0  iACCESS:          0  iHIT:          0  iMISS:          0  dACCESS:          0  dHIT:          0  dMISS:          0  itACCESS:          0  itHIT:          0  itMISS:          0  dtACCESS:          0  dtHIT:          0  dtMISS:          0
cpu0_L1I PREFETCH     ACCESS:   25029705  HIT:   19998523  MISS:    5031182  iACCESS:   25029705  iHIT:   19998523  iMISS:    5031182  dACCESS:          0  dHIT:          0  dMISS:          0  itACCESS:          0  itHIT:          0  itMISS:          0  dtACCESS:          0  dtHIT:          0  dtMISS:          0
cpu0_L1I WRITE        ACCESS:          0  HIT:          0  MISS:          0  iACCESS:          0  iHIT:          0  iMISS:          0  dACCESS:          0  dHIT:          0  dMISS:          0  itACCESS:          0  itHIT:          0  itMISS:          0  dtACCESS:          0  dtHIT:          0  dtMISS:          0
cpu0_L1I TRANSLATION  ACCESS:          0  HIT:          0  MISS:          0  iACCESS:          0  iHIT:          0  iMISS:          0  dACCESS:          0  dHIT:          0  dMISS:          0  itACCESS:          0  itHIT:          0  itMISS:          0  dtACCESS:          0  dtHIT:          0  dtMISS:          0
cpu0_L1I PREFETCH  REQUESTED:   27312287  ISSUED:   27312286  CROSSED:          0  USEFUL:    1724962  USELESS:     560978
cpu0_L1I AVERAGE iMISS LATENCY: 13.3357 cycles
cpu0_L1I AVERAGE dMISS LATENCY: 0 cycles
cpu0_L1I AVERAGE itMISS LATENCY: 0 cycles
cpu0_L1I AVERAGE dtMISS LATENCY: 0 cycles
cpu0_L1I PAGE CROSSINGS (TLB HIT):         0 
cpu0_L1I PAGE CROSSINGS (TLB MISS):         0 
cpu0_L1I AVERAGE MISS LATENCY: 13.3357 cycles
cpu0_ITLB TOTAL       ACCESS:   28747751  HIT:   27020135  MISS:    1727616  iACCESS:   28747751  iHIT:   27020135  iMISS:    1727616  dACCESS:          0  dHIT:          0  dMISS:          0  itACCESS:          0  itHIT:          0  itMISS:          0  dtACCESS:          0  dtHIT:          0  dtMISS:          0
cpu0_ITLB LOAD         ACCESS:   28747751  HIT:   27020135  MISS:    1727616  iACCESS:   28747751  iHIT:   27020135  iMISS:    1727616  dACCESS:          0  dHIT:          0  dMISS:          0  itACCESS:          0  itHIT:          0  itMISS:          0  dtACCESS:          0  dtHIT:          0  dtMISS:          0
cpu0_ITLB RFO          ACCESS:          0  HIT:          0  MISS:          0  iACCESS:          0  iHIT:          0  iMISS:          0  dACCESS:          0  dHIT:          0  dMISS:          0  itACCESS:          0  itHIT:          0  itMISS:          0  dtACCESS:          0  dtHIT:          0  dtMISS:          0
cpu0_ITLB PREFETCH     ACCESS:          0  HIT:          0  MISS:          0  iACCESS:          0  iHIT:          0  iMISS:          0  dACCESS:          0  dHIT:          0  dMISS:          0  itACCESS:          0  itHIT:          0  itMISS:          0  dtACCESS:          0  dtHIT:          0  dtMISS:          0
cpu0_ITLB WRITE        ACCESS:          0  HIT:          0  MISS:          0  iACCESS:          0  iHIT:          0  iMISS:          0  dACCESS:          0  dHIT:          0  dMISS:          0  itACCESS:          0  itHIT:          0  itMISS:          0  dtACCESS:          0  dtHIT:          0  dtMISS:          0
cpu0_ITLB TRANSLATION  ACCESS:          0  HIT:          0  MISS:          0  iACCESS:          0  iHIT:          0  iMISS:          0  dACCESS:          0  dHIT:          0  dMISS:          0  itACCESS:          0  itHIT:          0  itMISS:          0  dtACCESS:          0  dtHIT:          0  dtMISS:          0
cpu0_ITLB PREFETCH  REQUESTED:          0  ISSUED:          0  CROSSED:          0  USEFUL:     282123  USELESS:      57327
cpu0_ITLB AVERAGE iMISS LATENCY: 2.37585 cycles
cpu0_ITLB AVERAGE dMISS LATENCY: 0 cycles
cpu0_ITLB AVERAGE itMISS LATENCY: 0 cycles
cpu0_ITLB AVERAGE dtMISS LATENCY: 0 cycles
cpu0_ITLB PAGE CROSSINGS (TLB HIT):         0 
cpu0_ITLB PAGE CROSSINGS (TLB MISS):         0 
cpu0_ITLB AVERAGE MISS LATENCY: 2.37585 cycles
cpu0_DTLB TOTAL       ACCESS:   29464700  HIT:   25138288  MISS:    4326412  iACCESS:          0  iHIT:          0  iMISS:          0  dACCESS:   29464700  dHIT:   25138288  dMISS:    4326412  itACCESS:          0  itHIT:          0  itMISS:          0  dtACCESS:          0  dtHIT:          0  dtMISS:          0
cpu0_DTLB LOAD         ACCESS:   29464700  HIT:   25138288  MISS:    4326412  iACCESS:          0  iHIT:          0  iMISS:          0  dACCESS:   29464700  dHIT:   25138288  dMISS:    4326412  itACCESS:          0  itHIT:          0  itMISS:          0  dtACCESS:          0  dtHIT:          0  dtMISS:          0
cpu0_DTLB RFO          ACCESS:          0  HIT:          0  MISS:          0  iACCESS:          0  iHIT:          0  iMISS:          0  dACCESS:          0  dHIT:          0  dMISS:          0  itACCESS:          0  itHIT:          0  itMISS:          0  dtACCESS:          0  dtHIT:          0  dtMISS:          0
cpu0_DTLB PREFETCH     ACCESS:          0  HIT:          0  MISS:          0  iACCESS:          0  iHIT:          0  iMISS:          0  dACCESS:          0  dHIT:          0  dMISS:          0  itACCESS:          0  itHIT:          0  itMISS:          0  dtACCESS:          0  dtHIT:          0  dtMISS:          0
cpu0_DTLB WRITE        ACCESS:          0  HIT:          0  MISS:          0  iACCESS:          0  iHIT:          0  iMISS:          0  dACCESS:          0  dHIT:          0  dMISS:          0  itACCESS:          0  itHIT:          0  itMISS:          0  dtACCESS:          0  dtHIT:          0  dtMISS:          0
cpu0_DTLB TRANSLATION  ACCESS:          0  HIT:          0  MISS:          0  iACCESS:          0  iHIT:          0  iMISS:          0  dACCESS:          0  dHIT:          0  dMISS:          0  itACCESS:          0  itHIT:          0  itMISS:          0  dtACCESS:          0  dtHIT:          0  dtMISS:          0
cpu0_DTLB PREFETCH  REQUESTED:          0  ISSUED:          0  CROSSED:          0  USEFUL:          0  USELESS:          0
cpu0_DTLB AVERAGE iMISS LATENCY: 0 cycles
cpu0_DTLB AVERAGE dMISS LATENCY: 9.4074 cycles
cpu0_DTLB AVERAGE itMISS LATENCY: 0 cycles
cpu0_DTLB AVERAGE dtMISS LATENCY: 0 cycles
cpu0_DTLB PAGE CROSSINGS (TLB HIT):         0 
cpu0_DTLB PAGE CROSSINGS (TLB MISS):         0 
cpu0_DTLB AVERAGE MISS LATENCY: 9.4074 cycles
cpu0_STLB TOTAL       ACCESS:    2571475  HIT:    2437314  MISS:     134161  iACCESS:     339456  iHIT:     329576  iMISS:       9880  dACCESS:    2232019  dHIT:    2107738  dMISS:     124281  itACCESS:          0  itHIT:          0  itMISS:          0  dtACCESS:          0  dtHIT:          0  dtMISS:          0
cpu0_STLB LOAD         ACCESS:    2571475  HIT:    2437314  MISS:     134161  iACCESS:     339456  iHIT:     329576  iMISS:       9880  dACCESS:    2232019  dHIT:    2107738  dMISS:     124281  itACCESS:          0  itHIT:          0  itMISS:          0  dtACCESS:          0  dtHIT:          0  dtMISS:          0
cpu0_STLB RFO          ACCESS:          0  HIT:          0  MISS:          0  iACCESS:          0  iHIT:          0  iMISS:          0  dACCESS:          0  dHIT:          0  dMISS:          0  itACCESS:          0  itHIT:          0  itMISS:          0  dtACCESS:          0  dtHIT:          0  dtMISS:          0
cpu0_STLB PREFETCH     ACCESS:          0  HIT:          0  MISS:          0  iACCESS:          0  iHIT:          0  iMISS:          0  dACCESS:          0  dHIT:          0  dMISS:          0  itACCESS:          0  itHIT:          0  itMISS:          0  dtACCESS:          0  dtHIT:          0  dtMISS:          0
cpu0_STLB WRITE        ACCESS:          0  HIT:          0  MISS:          0  iACCESS:          0  iHIT:          0  iMISS:          0  dACCESS:          0  dHIT:          0  dMISS:          0  itACCESS:          0  itHIT:          0  itMISS:          0  dtACCESS:          0  dtHIT:          0  dtMISS:          0
cpu0_STLB TRANSLATION  ACCESS:          0  HIT:          0  MISS:          0  iACCESS:          0  iHIT:          0  iMISS:          0  dACCESS:          0  dHIT:          0  dMISS:          0  itACCESS:          0  itHIT:          0  itMISS:          0  dtACCESS:          0  dtHIT:          0  dtMISS:          0
cpu0_STLB PREFETCH  REQUESTED:          0  ISSUED:          0  CROSSED:          0  USEFUL:          0  USELESS:          0
cpu0_STLB AVERAGE iMISS LATENCY: 10.9455 cycles
cpu0_STLB AVERAGE dMISS LATENCY: 169.282 cycles
cpu0_STLB AVERAGE itMISS LATENCY: 0 cycles
cpu0_STLB AVERAGE dtMISS LATENCY: 0 cycles
cpu0_STLB PAGE CROSSINGS (TLB HIT):         0 
cpu0_STLB PAGE CROSSINGS (TLB MISS):         0 
cpu0_STLB AVERAGE MISS LATENCY: 180.227 cycles
cpu0_L1D TOTAL       ACCESS:   43876096  HIT:   38672988  MISS:    5203108  iACCESS:          0  iHIT:          0  iMISS:          0  dACCESS:   43675744  dHIT:   38660260  dMISS:    5015484  itACCESS:      11402  itHIT:       1291  itMISS:      10111  dtACCESS:     188950  dtHIT:      11437  dtMISS:     177513
cpu0_L1D LOAD         ACCESS:   21060663  HIT:   18033795  MISS:    3026868  iACCESS:          0  iHIT:          0  iMISS:          0  dACCESS:   21060663  dHIT:   18033795  dMISS:    3026868  itACCESS:          0  itHIT:          0  itMISS:          0  dtACCESS:          0  dtHIT:          0  dtMISS:          0
cpu0_L1D RFO          ACCESS:          0  HIT:          0  MISS:          0  iACCESS:          0  iHIT:          0  iMISS:          0  dACCESS:          0  dHIT:          0  dMISS:          0  itACCESS:          0  itHIT:          0  itMISS:          0  dtACCESS:          0  dtHIT:          0  dtMISS:          0
cpu0_L1D PREFETCH     ACCESS:   12782536  HIT:   11206420  MISS:    1576116  iACCESS:          0  iHIT:          0  iMISS:          0  dACCESS:   12782536  dHIT:   11206420  dMISS:    1576116  itACCESS:          0  itHIT:          0  itMISS:          0  dtACCESS:          0  dtHIT:          0  dtMISS:          0
cpu0_L1D WRITE        ACCESS:    9832545  HIT:    9420045  MISS:     412500  iACCESS:          0  iHIT:          0  iMISS:          0  dACCESS:    9832545  dHIT:    9420045  dMISS:     412500  itACCESS:          0  itHIT:          0  itMISS:          0  dtACCESS:          0  dtHIT:          0  dtMISS:          0
cpu0_L1D TRANSLATION  ACCESS:     200352  HIT:      12728  MISS:     187624  iACCESS:          0  iHIT:          0  iMISS:          0  dACCESS:          0  dHIT:          0  dMISS:          0  itACCESS:      11402  itHIT:       1291  itMISS:      10111  dtACCESS:     188950  dtHIT:      11437  dtMISS:     177513
cpu0_L1D PREFETCH  REQUESTED:   21060663  ISSUED:   17461387  CROSSED:          0  USEFUL:     273581  USELESS:     830367
cpu0_L1D AVERAGE iMISS LATENCY: 0 cycles
cpu0_L1D AVERAGE dMISS LATENCY: 24.7389 cycles
cpu0_L1D AVERAGE itMISS LATENCY: 0.259365 cycles
cpu0_L1D AVERAGE dtMISS LATENCY: 3.89965 cycles
cpu0_L1D PAGE CROSSINGS (TLB HIT):         0 
cpu0_L1D PAGE CROSSINGS (TLB MISS):         0 
cpu0_L1D AVERAGE MISS LATENCY: 28.898 cycles
cpu0_L2C TOTAL       ACCESS:    8023364  HIT:    5383172  MISS:    2640192  iACCESS:    2950579  iHIT:    1977477  iMISS:     973102  dACCESS:    4897330  dHIT:    3376695  dMISS:    1520635  itACCESS:      10111  itHIT:       1917  itMISS:       8194  dtACCESS:     165344  dtHIT:      27083  dtMISS:     138261
cpu0_L2C LOAD         ACCESS:    3047788  HIT:    2435256  MISS:     612532  iACCESS:     699910  iHIT:     494200  iMISS:     205710  dACCESS:    2347878  dHIT:    1941056  dMISS:     406822  itACCESS:          0  itHIT:          0  itMISS:          0  dtACCESS:          0  dtHIT:          0  dtMISS:          0
cpu0_L2C RFO          ACCESS:     162340  HIT:      85403  MISS:      76937  iACCESS:          0  iHIT:          0  iMISS:          0  dACCESS:     162340  dHIT:      85403  dMISS:      76937  itACCESS:          0  itHIT:          0  itMISS:          0  dtACCESS:          0  dtHIT:          0  dtMISS:          0
cpu0_L2C PREFETCH     ACCESS:    4384242  HIT:    2581041  MISS:    1803201  iACCESS:    2250669  iHIT:    1483277  iMISS:     767392  dACCESS:    2133573  dHIT:    1097764  dMISS:    1035809  itACCESS:          0  itHIT:          0  itMISS:          0  dtACCESS:          0  dtHIT:          0  dtMISS:          0
cpu0_L2C WRITE        ACCESS:     253539  HIT:     252472  MISS:       1067  iACCESS:          0  iHIT:          0  iMISS:          0  dACCESS:     253539  dHIT:     252472  dMISS:       1067  itACCESS:          0  itHIT:          0  itMISS:          0  dtACCESS:          0  dtHIT:          0  dtMISS:          0
cpu0_L2C TRANSLATION  ACCESS:     175455  HIT:      29000  MISS:     146455  iACCESS:          0  iHIT:          0  iMISS:          0  dACCESS:          0  dHIT:          0  dMISS:          0  itACCESS:      10111  itHIT:       1917  itMISS:       8194  dtACCESS:     165344  dtHIT:      27083  dtMISS:     138261
cpu0_L2C PREFETCH  REQUESTED:    1259527  ISSUED:    1259499  CROSSED:          0  USEFUL:     295580  USELESS:     212811
cpu0_L2C AVERAGE iMISS LATENCY: 25.3064 cycles
cpu0_L2C AVERAGE dMISS LATENCY: 48.493 cycles
cpu0_L2C AVERAGE itMISS LATENCY: 0.473458 cycles
cpu0_L2C AVERAGE dtMISS LATENCY: 7.06371 cycles
cpu0_L2C PAGE CROSSINGS (TLB HIT):         0 
cpu0_L2C PAGE CROSSINGS (TLB MISS):         0 
cpu0_L2C AVERAGE MISS LATENCY: 81.3365 cycles
LLC TOTAL       ACCESS:    2658845  HIT:    1617978  MISS:    1040867  iACCESS:     922609  iHIT:     590369  iMISS:     332240  dACCESS:    1589781  dHIT:     975503  dMISS:     614278  itACCESS:       8194  itHIT:       2019  itMISS:       6175  dtACCESS:     138261  dtHIT:      50087  dtMISS:      88174
LLC LOAD         ACCESS:     610575  HIT:     384852  MISS:     225723  iACCESS:     204721  iHIT:     134895  iMISS:      69826  dACCESS:     405854  dHIT:     249957  dMISS:     155897  itACCESS:          0  itHIT:          0  itMISS:          0  dtACCESS:          0  dtHIT:          0  dtMISS:          0
LLC RFO          ACCESS:      76930  HIT:      42044  MISS:      34886  iACCESS:          0  iHIT:          0  iMISS:          0  dACCESS:      76930  dHIT:      42044  dMISS:      34886  itACCESS:          0  itHIT:          0  itMISS:          0  dtACCESS:          0  dtHIT:          0  dtMISS:          0
LLC PREFETCH     ACCESS:    1703017  HIT:    1022813  MISS:     680204  iACCESS:     717888  iHIT:     455474  iMISS:     262414  dACCESS:     985129  dHIT:     567339  dMISS:     417790  itACCESS:          0  itHIT:          0  itMISS:          0  dtACCESS:          0  dtHIT:          0  dtMISS:          0
LLC WRITE        ACCESS:     121868  HIT:     116163  MISS:       5705  iACCESS:          0  iHIT:          0  iMISS:          0  dACCESS:     121868  dHIT:     116163  dMISS:       5705  itACCESS:          0  itHIT:          0  itMISS:          0  dtACCESS:          0  dtHIT:          0  dtMISS:          0
LLC TRANSLATION  ACCESS:     146455  HIT:      52106  MISS:      94349  iACCESS:          0  iHIT:          0  iMISS:          0  dACCESS:          0  dHIT:          0  dMISS:          0  itACCESS:       8194  itHIT:       2019  itMISS:       6175  dtACCESS:     138261  dtHIT:      50087  dtMISS:      88174
LLC PREFETCH  REQUESTED:          0  ISSUED:          0  CROSSED:          0  USEFUL:          0  USELESS:          0
LLC AVERAGE iMISS LATENCY: 46.958 cycles
LLC AVERAGE dMISS LATENCY: 95.7827 cycles
LLC AVERAGE itMISS LATENCY: 1.04601 cycles
LLC AVERAGE dtMISS LATENCY: 15.3166 cycles
LLC PAGE CROSSINGS (TLB HIT):         0 
LLC PAGE CROSSINGS (TLB MISS):         0 
LLC AVERAGE MISS LATENCY: 159.104 cycles

PageTableWalker TOTAL       ACCESS:      75567  
PageTableWalker AVERAGE LATENCY: 5.73039 cycles
PageTableWalker TOTAL LATENCY: 433028 cycles

DRAM Statistics
Channel 0
 RQ ROW_BUFFER_HIT:     286823
  ROW_BUFFER_MISS:     747532
 AVG DBUS CONGESTED CYCLE:    3.62817
 WQ ROW_BUFFER_HIT:      20280
  ROW_BUFFER_MISS:      19352  FULL:          0

