last_page:0x200000000000000
VMEM_RES_CAP:0x100000
PAGE_SIZE:4096
LOG2_PAGE_SIZE:12
LOG2_PAGE_TABLE_SIZE:9
page_table_levels:5
WARNING: physical memory size is smaller than virtual memory size
FDiP enabled with aggresivity 16

*** ChampSim Multicore Out-of-Order Simulator ***

Warmup Instructions: 50000000
Simulation Instructions: 100000000
Number of CPUs: 1
Small page size: 4096
Large page size: 2097152

CPU 0 Bimodal branch predictor
Basic BTB sets: 1024 ways: 8 indirect buffer size: 4096 RAS size: 64
Instruction page size distrubution: 0
Loading instruction page size distribution from /home/bsc/bsc018186/scratch/itp_asplos25_AE/dump/srv727_ap.pdst
Data page size distrubution: 0
Loading data page size distribution from /home/bsc/bsc018186/scratch/itp_asplos25_AE/dump/srv727_ap.pdst
cpu0_L2C IP-based stride prefetcher
cpu0_L1D next line prefetcher
cpu0_STLB using iTP with max lru@8
cpu0_STLB using iTP with instr@0 and data@2
Init sat counter with 3 bits (max:50).
cpu0_L1I next line prefetcher
Off-chip DRAM Size: 4 GiB Channels: 1 Width: 64-bit Data Rate: 3200 MT/s
Heartbeat CPU 0 instructions: 10000002 cycles: 2500135 heartbeat IPC: 3.99979 cumulative IPC: 3.99979 (Simulation time: 0 hr 0 min 37 sec) 
Heartbeat CPU 0 instructions: 20000003 cycles: 5000165 heartbeat IPC: 3.99996 cumulative IPC: 3.99987 (Simulation time: 0 hr 1 min 16 sec) 
Heartbeat CPU 0 instructions: 30000000 cycles: 7500199 heartbeat IPC: 3.99995 cumulative IPC: 3.9999 (Simulation time: 0 hr 1 min 55 sec) 
Heartbeat CPU 0 instructions: 40000000 cycles: 10000871 heartbeat IPC: 3.99893 cumulative IPC: 3.99966 (Simulation time: 0 hr 2 min 35 sec) 
Heartbeat CPU 0 instructions: 50000001 cycles: 12500924 heartbeat IPC: 3.99992 cumulative IPC: 3.99971 (Simulation time: 0 hr 3 min 15 sec) 
Warmup finished CPU 0 instructions: 50000001 cycles: 12500925 cumulative IPC: 3.99971 (Simulation time: 0 hr 3 min 15 sec) 

Warmup complete CPU 0 instructions: 50000001 cycles: 12500925 (Simulation time: 0 hr 3 min 15 sec) 

Heartbeat CPU 0 instructions: 60000001 cycles: 33231919 heartbeat IPC: 0.48237 cumulative IPC: 0.48237 (Simulation time: 0 hr 4 min 26 sec) 
Heartbeat CPU 0 instructions: 70000000 cycles: 53634736 heartbeat IPC: 0.490129 cumulative IPC: 0.486218 (Simulation time: 0 hr 5 min 37 sec) 
Heartbeat CPU 0 instructions: 80000003 cycles: 74483754 heartbeat IPC: 0.47964 cumulative IPC: 0.484006 (Simulation time: 0 hr 6 min 49 sec) 
Heartbeat CPU 0 instructions: 90000000 cycles: 94315443 heartbeat IPC: 0.504244 cumulative IPC: 0.488911 (Simulation time: 0 hr 8 min 1 sec) 
Heartbeat CPU 0 instructions: 100000001 cycles: 115414931 heartbeat IPC: 0.473946 cumulative IPC: 0.485843 (Simulation time: 0 hr 9 min 15 sec) 
*** Reached end of trace: /gpfs/projects/bsc18/MN4/bsc18/romol/ChampSim/traces/qualcomm_srv/srv727_ap.champsimtrace.xz
Heartbeat CPU 0 instructions: 110000001 cycles: 135124764 heartbeat IPC: 0.507361 cumulative IPC: 0.489302 (Simulation time: 0 hr 10 min 27 sec) 
Heartbeat CPU 0 instructions: 120000003 cycles: 154969624 heartbeat IPC: 0.503909 cumulative IPC: 0.491337 (Simulation time: 0 hr 11 min 39 sec) 
Heartbeat CPU 0 instructions: 130000001 cycles: 175882446 heartbeat IPC: 0.478176 cumulative IPC: 0.489652 (Simulation time: 0 hr 12 min 52 sec) 
Heartbeat CPU 0 instructions: 140000004 cycles: 196167544 heartbeat IPC: 0.492973 cumulative IPC: 0.490019 (Simulation time: 0 hr 14 min 5 sec) 
Heartbeat CPU 0 instructions: 150000003 cycles: 216689409 heartbeat IPC: 0.487286 cumulative IPC: 0.489744 (Simulation time: 0 hr 15 min 18 sec) 
Simulation finished CPU 0 instructions: 100000002 cycles: 204188485 cumulative IPC: 0.489744 (Simulation time: 0 hr 15 min 18 sec) 

Simulation complete CPU 0 instructions: 100000002 cycles: 204188485 (Simulation time: 0 hr 15 min 18 sec) 


ChampSim completed all CPUs

Saving instructions large page distribution to /home/bsc/bsc018186/scratch/itp_asplos25_AE/dump/srv727_ap.pdst...
Saving data large page distribution to /home/bsc/bsc018186/scratch/itp_asplos25_AE/dump/srv727_ap.pdst...
=== Simulation ===
CPU 0 runs /gpfs/projects/bsc18/MN4/bsc18/romol/ChampSim/traces/qualcomm_srv/srv727_ap.champsimtrace.xz

Region of Interest Statistics

CPU 0 cumulative IPC: 0.489744 instructions: 100000002 cycles: 204188485
CPU 0 Branch Prediction Accuracy: 80.2071% MPKI: 35.6611 Average ROB Occupancy at Mispredict: 10.818
Branch type MPKI
BRANCH_DIRECT_JUMP: 1.31546
BRANCH_INDIRECT: 17.8474
BRANCH_CONDITIONAL: 11.594
BRANCH_DIRECT_CALL: 2.46883
BRANCH_INDIRECT_CALL: 0.6923
BRANCH_RETURN: 1.74308

Instructions large pages: 0
Instructions small pages: 5810
Large page distribution for instructions: 0%

Data large pages: 0
Data small pages: 4708
Large page distribution for data: 0%

cpu0_L1I TOTAL       ACCESS:   35327902  HIT:   27441703  MISS:    7886199  iACCESS:   35327902  iHIT:   27441703  iMISS:    7886199  dACCESS:          0  dHIT:          0  dMISS:          0  itACCESS:          0  itHIT:          0  itMISS:          0  dtACCESS:          0  dtHIT:          0  dtMISS:          0
cpu0_L1I LOAD         ACCESS:   10182458  HIT:    8014515  MISS:    2167943  iACCESS:   10182458  iHIT:    8014515  iMISS:    2167943  dACCESS:          0  dHIT:          0  dMISS:          0  itACCESS:          0  itHIT:          0  itMISS:          0  dtACCESS:          0  dtHIT:          0  dtMISS:          0
cpu0_L1I RFO          ACCESS:          0  HIT:          0  MISS:          0  iACCESS:          0  iHIT:          0  iMISS:          0  dACCESS:          0  dHIT:          0  dMISS:          0  itACCESS:          0  itHIT:          0  itMISS:          0  dtACCESS:          0  dtHIT:          0  dtMISS:          0
cpu0_L1I PREFETCH     ACCESS:   25145444  HIT:   19427188  MISS:    5718256  iACCESS:   25145444  iHIT:   19427188  iMISS:    5718256  dACCESS:          0  dHIT:          0  dMISS:          0  itACCESS:          0  itHIT:          0  itMISS:          0  dtACCESS:          0  dtHIT:          0  dtMISS:          0
cpu0_L1I WRITE        ACCESS:          0  HIT:          0  MISS:          0  iACCESS:          0  iHIT:          0  iMISS:          0  dACCESS:          0  dHIT:          0  dMISS:          0  itACCESS:          0  itHIT:          0  itMISS:          0  dtACCESS:          0  dtHIT:          0  dtMISS:          0
cpu0_L1I TRANSLATION  ACCESS:          0  HIT:          0  MISS:          0  iACCESS:          0  iHIT:          0  iMISS:          0  dACCESS:          0  dHIT:          0  dMISS:          0  itACCESS:          0  itHIT:          0  itMISS:          0  dtACCESS:          0  dtHIT:          0  dtMISS:          0
cpu0_L1I PREFETCH  REQUESTED:   27516272  ISSUED:   27516272  CROSSED:          0  USEFUL:    1975165  USELESS:     655367
cpu0_L1I AVERAGE iMISS LATENCY: 19.8983 cycles
cpu0_L1I AVERAGE dMISS LATENCY: 0 cycles
cpu0_L1I AVERAGE itMISS LATENCY: 0 cycles
cpu0_L1I AVERAGE dtMISS LATENCY: 0 cycles
cpu0_L1I PAGE CROSSINGS (TLB HIT):         0 
cpu0_L1I PAGE CROSSINGS (TLB MISS):         0 
cpu0_L1I AVERAGE MISS LATENCY: 19.8983 cycles
cpu0_ITLB TOTAL       ACCESS:   29825739  HIT:   27867918  MISS:    1957821  iACCESS:   29825739  iHIT:   27867918  iMISS:    1957821  dACCESS:          0  dHIT:          0  dMISS:          0  itACCESS:          0  itHIT:          0  itMISS:          0  dtACCESS:          0  dtHIT:          0  dtMISS:          0
cpu0_ITLB LOAD         ACCESS:   29825739  HIT:   27867918  MISS:    1957821  iACCESS:   29825739  iHIT:   27867918  iMISS:    1957821  dACCESS:          0  dHIT:          0  dMISS:          0  itACCESS:          0  itHIT:          0  itMISS:          0  dtACCESS:          0  dtHIT:          0  dtMISS:          0
cpu0_ITLB RFO          ACCESS:          0  HIT:          0  MISS:          0  iACCESS:          0  iHIT:          0  iMISS:          0  dACCESS:          0  dHIT:          0  dMISS:          0  itACCESS:          0  itHIT:          0  itMISS:          0  dtACCESS:          0  dtHIT:          0  dtMISS:          0
cpu0_ITLB PREFETCH     ACCESS:          0  HIT:          0  MISS:          0  iACCESS:          0  iHIT:          0  iMISS:          0  dACCESS:          0  dHIT:          0  dMISS:          0  itACCESS:          0  itHIT:          0  itMISS:          0  dtACCESS:          0  dtHIT:          0  dtMISS:          0
cpu0_ITLB WRITE        ACCESS:          0  HIT:          0  MISS:          0  iACCESS:          0  iHIT:          0  iMISS:          0  dACCESS:          0  dHIT:          0  dMISS:          0  itACCESS:          0  itHIT:          0  itMISS:          0  dtACCESS:          0  dtHIT:          0  dtMISS:          0
cpu0_ITLB TRANSLATION  ACCESS:          0  HIT:          0  MISS:          0  iACCESS:          0  iHIT:          0  iMISS:          0  dACCESS:          0  dHIT:          0  dMISS:          0  itACCESS:          0  itHIT:          0  itMISS:          0  dtACCESS:          0  dtHIT:          0  dtMISS:          0
cpu0_ITLB PREFETCH  REQUESTED:          0  ISSUED:          0  CROSSED:          0  USEFUL:     331108  USELESS:      62399
cpu0_ITLB AVERAGE iMISS LATENCY: 3.48225 cycles
cpu0_ITLB AVERAGE dMISS LATENCY: 0 cycles
cpu0_ITLB AVERAGE itMISS LATENCY: 0 cycles
cpu0_ITLB AVERAGE dtMISS LATENCY: 0 cycles
cpu0_ITLB PAGE CROSSINGS (TLB HIT):         0 
cpu0_ITLB PAGE CROSSINGS (TLB MISS):         0 
cpu0_ITLB AVERAGE MISS LATENCY: 3.48225 cycles
cpu0_DTLB TOTAL       ACCESS:   27986859  HIT:   26166784  MISS:    1820075  iACCESS:          0  iHIT:          0  iMISS:          0  dACCESS:   27986859  dHIT:   26166784  dMISS:    1820075  itACCESS:          0  itHIT:          0  itMISS:          0  dtACCESS:          0  dtHIT:          0  dtMISS:          0
cpu0_DTLB LOAD         ACCESS:   27986859  HIT:   26166784  MISS:    1820075  iACCESS:          0  iHIT:          0  iMISS:          0  dACCESS:   27986859  dHIT:   26166784  dMISS:    1820075  itACCESS:          0  itHIT:          0  itMISS:          0  dtACCESS:          0  dtHIT:          0  dtMISS:          0
cpu0_DTLB RFO          ACCESS:          0  HIT:          0  MISS:          0  iACCESS:          0  iHIT:          0  iMISS:          0  dACCESS:          0  dHIT:          0  dMISS:          0  itACCESS:          0  itHIT:          0  itMISS:          0  dtACCESS:          0  dtHIT:          0  dtMISS:          0
cpu0_DTLB PREFETCH     ACCESS:          0  HIT:          0  MISS:          0  iACCESS:          0  iHIT:          0  iMISS:          0  dACCESS:          0  dHIT:          0  dMISS:          0  itACCESS:          0  itHIT:          0  itMISS:          0  dtACCESS:          0  dtHIT:          0  dtMISS:          0
cpu0_DTLB WRITE        ACCESS:          0  HIT:          0  MISS:          0  iACCESS:          0  iHIT:          0  iMISS:          0  dACCESS:          0  dHIT:          0  dMISS:          0  itACCESS:          0  itHIT:          0  itMISS:          0  dtACCESS:          0  dtHIT:          0  dtMISS:          0
cpu0_DTLB TRANSLATION  ACCESS:          0  HIT:          0  MISS:          0  iACCESS:          0  iHIT:          0  iMISS:          0  dACCESS:          0  dHIT:          0  dMISS:          0  itACCESS:          0  itHIT:          0  itMISS:          0  dtACCESS:          0  dtHIT:          0  dtMISS:          0
cpu0_DTLB PREFETCH  REQUESTED:          0  ISSUED:          0  CROSSED:          0  USEFUL:          0  USELESS:          0
cpu0_DTLB AVERAGE iMISS LATENCY: 0 cycles
cpu0_DTLB AVERAGE dMISS LATENCY: 25.4912 cycles
cpu0_DTLB AVERAGE itMISS LATENCY: 0 cycles
cpu0_DTLB AVERAGE dtMISS LATENCY: 0 cycles
cpu0_DTLB PAGE CROSSINGS (TLB HIT):         0 
cpu0_DTLB PAGE CROSSINGS (TLB MISS):         0 
cpu0_DTLB AVERAGE MISS LATENCY: 25.4912 cycles
cpu0_STLB TOTAL       ACCESS:    1541071  HIT:    1330122  MISS:     210949  iACCESS:     393514  iHIT:     371685  iMISS:      21829  dACCESS:    1147557  dHIT:     958437  dMISS:     189120  itACCESS:          0  itHIT:          0  itMISS:          0  dtACCESS:          0  dtHIT:          0  dtMISS:          0
cpu0_STLB LOAD         ACCESS:    1541071  HIT:    1330122  MISS:     210949  iACCESS:     393514  iHIT:     371685  iMISS:      21829  dACCESS:    1147557  dHIT:     958437  dMISS:     189120  itACCESS:          0  itHIT:          0  itMISS:          0  dtACCESS:          0  dtHIT:          0  dtMISS:          0
cpu0_STLB RFO          ACCESS:          0  HIT:          0  MISS:          0  iACCESS:          0  iHIT:          0  iMISS:          0  dACCESS:          0  dHIT:          0  dMISS:          0  itACCESS:          0  itHIT:          0  itMISS:          0  dtACCESS:          0  dtHIT:          0  dtMISS:          0
cpu0_STLB PREFETCH     ACCESS:          0  HIT:          0  MISS:          0  iACCESS:          0  iHIT:          0  iMISS:          0  dACCESS:          0  dHIT:          0  dMISS:          0  itACCESS:          0  itHIT:          0  itMISS:          0  dtACCESS:          0  dtHIT:          0  dtMISS:          0
cpu0_STLB WRITE        ACCESS:          0  HIT:          0  MISS:          0  iACCESS:          0  iHIT:          0  iMISS:          0  dACCESS:          0  dHIT:          0  dMISS:          0  itACCESS:          0  itHIT:          0  itMISS:          0  dtACCESS:          0  dtHIT:          0  dtMISS:          0
cpu0_STLB TRANSLATION  ACCESS:          0  HIT:          0  MISS:          0  iACCESS:          0  iHIT:          0  iMISS:          0  dACCESS:          0  dHIT:          0  dMISS:          0  itACCESS:          0  itHIT:          0  itMISS:          0  dtACCESS:          0  dtHIT:          0  dtMISS:          0
cpu0_STLB PREFETCH  REQUESTED:          0  ISSUED:          0  CROSSED:          0  USEFUL:          0  USELESS:          0
cpu0_STLB AVERAGE iMISS LATENCY: 17.7746 cycles
cpu0_STLB AVERAGE dMISS LATENCY: 176.171 cycles
cpu0_STLB AVERAGE itMISS LATENCY: 0 cycles
cpu0_STLB AVERAGE dtMISS LATENCY: 0 cycles
cpu0_STLB PAGE CROSSINGS (TLB HIT):         0 
cpu0_STLB PAGE CROSSINGS (TLB MISS):         0 
cpu0_STLB AVERAGE MISS LATENCY: 193.946 cycles
cpu0_L1D TOTAL       ACCESS:   42488231  HIT:   38428222  MISS:    4060009  iACCESS:          0  iHIT:          0  iMISS:          0  dACCESS:   42206218  dHIT:   38411013  dMISS:    3795205  itACCESS:      25270  itHIT:       1820  itMISS:      23450  dtACCESS:     256743  dtHIT:      15389  dtMISS:     241354
cpu0_L1D LOAD         ACCESS:   19356012  HIT:   17642315  MISS:    1713697  iACCESS:          0  iHIT:          0  iMISS:          0  dACCESS:   19356012  dHIT:   17642315  dMISS:    1713697  itACCESS:          0  itHIT:          0  itMISS:          0  dtACCESS:          0  dtHIT:          0  dtMISS:          0
cpu0_L1D RFO          ACCESS:          0  HIT:          0  MISS:          0  iACCESS:          0  iHIT:          0  iMISS:          0  dACCESS:          0  dHIT:          0  dMISS:          0  itACCESS:          0  itHIT:          0  itMISS:          0  dtACCESS:          0  dtHIT:          0  dtMISS:          0
cpu0_L1D PREFETCH     ACCESS:   12675951  HIT:   11098519  MISS:    1577432  iACCESS:          0  iHIT:          0  iMISS:          0  dACCESS:   12675951  dHIT:   11098519  dMISS:    1577432  itACCESS:          0  itHIT:          0  itMISS:          0  dtACCESS:          0  dtHIT:          0  dtMISS:          0
cpu0_L1D WRITE        ACCESS:   10174255  HIT:    9670179  MISS:     504076  iACCESS:          0  iHIT:          0  iMISS:          0  dACCESS:   10174255  dHIT:    9670179  dMISS:     504076  itACCESS:          0  itHIT:          0  itMISS:          0  dtACCESS:          0  dtHIT:          0  dtMISS:          0
cpu0_L1D TRANSLATION  ACCESS:     282013  HIT:      17209  MISS:     264804  iACCESS:          0  iHIT:          0  iMISS:          0  dACCESS:          0  dHIT:          0  dMISS:          0  itACCESS:      25270  itHIT:       1820  itMISS:      23450  dtACCESS:     256743  dtHIT:      15389  dtMISS:     241354
cpu0_L1D PREFETCH  REQUESTED:   19356012  ISSUED:   17263328  CROSSED:          0  USEFUL:     312586  USELESS:     710806
cpu0_L1D AVERAGE iMISS LATENCY: 0 cycles
cpu0_L1D AVERAGE dMISS LATENCY: 41.1187 cycles
cpu0_L1D AVERAGE itMISS LATENCY: 0.869163 cycles
cpu0_L1D AVERAGE dtMISS LATENCY: 8.54404 cycles
cpu0_L1D PAGE CROSSINGS (TLB HIT):         0 
cpu0_L1D PAGE CROSSINGS (TLB MISS):         0 
cpu0_L1D AVERAGE MISS LATENCY: 50.5319 cycles
cpu0_L2C TOTAL       ACCESS:    7285519  HIT:    3728579  MISS:    3556940  iACCESS:    3363742  iHIT:    2025566  iMISS:    1338176  dACCESS:    3660302  dHIT:    1659386  dMISS:    2000916  itACCESS:      23318  itHIT:       3782  itMISS:      19536  dtACCESS:     238157  dtHIT:      39845  dtMISS:     198312
cpu0_L2C LOAD         ACCESS:    1729636  HIT:     923020  MISS:     806616  iACCESS:     770999  iHIT:     494855  iMISS:     276144  dACCESS:     958637  dHIT:     428165  dMISS:     530472  itACCESS:          0  itHIT:          0  itMISS:          0  dtACCESS:          0  dtHIT:          0  dtMISS:          0
cpu0_L2C RFO          ACCESS:     166578  HIT:      63239  MISS:     103339  iACCESS:          0  iHIT:          0  iMISS:          0  dACCESS:     166578  dHIT:      63239  dMISS:     103339  itACCESS:          0  itHIT:          0  itMISS:          0  dtACCESS:          0  dtHIT:          0  dtMISS:          0
cpu0_L2C PREFETCH     ACCESS:    4849086  HIT:    2421142  MISS:    2427944  iACCESS:    2592743  iHIT:    1530711  iMISS:    1062032  dACCESS:    2256343  dHIT:     890431  dMISS:    1365912  itACCESS:          0  itHIT:          0  itMISS:          0  dtACCESS:          0  dtHIT:          0  dtMISS:          0
cpu0_L2C WRITE        ACCESS:     278744  HIT:     277551  MISS:       1193  iACCESS:          0  iHIT:          0  iMISS:          0  dACCESS:     278744  dHIT:     277551  dMISS:       1193  itACCESS:          0  itHIT:          0  itMISS:          0  dtACCESS:          0  dtHIT:          0  dtMISS:          0
cpu0_L2C TRANSLATION  ACCESS:     261475  HIT:      43627  MISS:     217848  iACCESS:          0  iHIT:          0  iMISS:          0  dACCESS:          0  dHIT:          0  dMISS:          0  itACCESS:      23318  itHIT:       3782  itMISS:      19536  dtACCESS:     238157  dtHIT:      39845  dtMISS:     198312
cpu0_L2C PREFETCH  REQUESTED:    1492802  ISSUED:    1492657  CROSSED:          0  USEFUL:     357145  USELESS:     298251
cpu0_L2C AVERAGE iMISS LATENCY: 35.9883 cycles
cpu0_L2C AVERAGE dMISS LATENCY: 60.6868 cycles
cpu0_L2C AVERAGE itMISS LATENCY: 0.927366 cycles
cpu0_L2C AVERAGE dtMISS LATENCY: 9.09014 cycles
cpu0_L2C PAGE CROSSINGS (TLB HIT):         0 
cpu0_L2C PAGE CROSSINGS (TLB MISS):         0 
cpu0_L2C AVERAGE MISS LATENCY: 106.693 cycles
LLC TOTAL       ACCESS:    3522181  HIT:    1563880  MISS:    1958301  iACCESS:    1260082  iHIT:     566851  iMISS:     693231  dACCESS:    2044251  dHIT:     946568  dMISS:    1097683  itACCESS:      19536  itHIT:       2907  itMISS:      16629  dtACCESS:     198312  dtHIT:      47554  dtMISS:     150758
LLC LOAD         ACCESS:     801273  HIT:     380844  MISS:     420429  iACCESS:     274801  iHIT:     130930  iMISS:     143871  dACCESS:     526472  dHIT:     249914  dMISS:     276558  itACCESS:          0  itHIT:          0  itMISS:          0  dtACCESS:          0  dtHIT:          0  dtMISS:          0
LLC RFO          ACCESS:     103318  HIT:      40353  MISS:      62965  iACCESS:          0  iHIT:          0  iMISS:          0  dACCESS:     103318  dHIT:      40353  dMISS:      62965  itACCESS:          0  itHIT:          0  itMISS:          0  dtACCESS:          0  dtHIT:          0  dtMISS:          0
LLC PREFETCH     ACCESS:    2250877  HIT:     951466  MISS:    1299411  iACCESS:     985281  iHIT:     435921  iMISS:     549360  dACCESS:    1265596  dHIT:     515545  dMISS:     750051  itACCESS:          0  itHIT:          0  itMISS:          0  dtACCESS:          0  dtHIT:          0  dtMISS:          0
LLC WRITE        ACCESS:     148865  HIT:     140756  MISS:       8109  iACCESS:          0  iHIT:          0  iMISS:          0  dACCESS:     148865  dHIT:     140756  dMISS:       8109  itACCESS:          0  itHIT:          0  itMISS:          0  dtACCESS:          0  dtHIT:          0  dtMISS:          0
LLC TRANSLATION  ACCESS:     217848  HIT:      50461  MISS:     167387  iACCESS:          0  iHIT:          0  iMISS:          0  dACCESS:          0  dHIT:          0  dMISS:          0  itACCESS:      19536  itHIT:       2907  itMISS:      16629  dtACCESS:     198312  dtHIT:      47554  dtMISS:     150758
LLC PREFETCH  REQUESTED:          0  ISSUED:          0  CROSSED:          0  USEFUL:          0  USELESS:          0
LLC AVERAGE iMISS LATENCY: 52.7722 cycles
LLC AVERAGE dMISS LATENCY: 92.0423 cycles
LLC AVERAGE itMISS LATENCY: 1.4872 cycles
LLC AVERAGE dtMISS LATENCY: 14.5186 cycles
LLC PAGE CROSSINGS (TLB HIT):         0 
LLC PAGE CROSSINGS (TLB MISS):         0 
LLC AVERAGE MISS LATENCY: 160.821 cycles

PageTableWalker TOTAL       ACCESS:      99978  
PageTableWalker AVERAGE LATENCY: 5.37888 cycles
PageTableWalker TOTAL LATENCY: 537769 cycles

DRAM Statistics
Channel 0
 RQ ROW_BUFFER_HIT:     536401
  ROW_BUFFER_MISS:    1405144
 AVG DBUS CONGESTED CYCLE:    3.63273
 WQ ROW_BUFFER_HIT:      38446
  ROW_BUFFER_MISS:      26410  FULL:          0

