last_page:0x200000000000000
VMEM_RES_CAP:0x100000
PAGE_SIZE:4096
LOG2_PAGE_SIZE:12
LOG2_PAGE_TABLE_SIZE:9
page_table_levels:5
WARNING: physical memory size is smaller than virtual memory size
FDiP enabled with aggresivity 16

*** ChampSim Multicore Out-of-Order Simulator ***

Warmup Instructions: 50000000
Simulation Instructions: 100000000
Number of CPUs: 1
Small page size: 4096
Large page size: 2097152

CPU 0 Bimodal branch predictor
Basic BTB sets: 1024 ways: 8 indirect buffer size: 4096 RAS size: 64
Instruction page size distrubution: 0
Loading instruction page size distribution from /home/bsc/bsc018186/scratch/itp_asplos25_AE/dump/srv760_ap.pdst
Data page size distrubution: 0
Loading data page size distribution from /home/bsc/bsc018186/scratch/itp_asplos25_AE/dump/srv760_ap.pdst
cpu0_L2C IP-based stride prefetcher
cpu0_L1D next line prefetcher
cpu0_L1I next line prefetcher
Off-chip DRAM Size: 4 GiB Channels: 1 Width: 64-bit Data Rate: 3200 MT/s
Heartbeat CPU 0 instructions: 10000000 cycles: 2500373 heartbeat IPC: 3.99941 cumulative IPC: 3.99941 (Simulation time: 0 hr 0 min 34 sec) 
Heartbeat CPU 0 instructions: 20000001 cycles: 5000378 heartbeat IPC: 4 cumulative IPC: 3.9997 (Simulation time: 0 hr 1 min 11 sec) 
Heartbeat CPU 0 instructions: 30000002 cycles: 7500605 heartbeat IPC: 3.99964 cumulative IPC: 3.99968 (Simulation time: 0 hr 1 min 48 sec) 
Heartbeat CPU 0 instructions: 40000001 cycles: 10000637 heartbeat IPC: 3.99995 cumulative IPC: 3.99975 (Simulation time: 0 hr 2 min 25 sec) 
Heartbeat CPU 0 instructions: 50000002 cycles: 12501023 heartbeat IPC: 3.99939 cumulative IPC: 3.99968 (Simulation time: 0 hr 3 min 2 sec) 
Warmup finished CPU 0 instructions: 50000002 cycles: 12501024 cumulative IPC: 3.99968 (Simulation time: 0 hr 3 min 2 sec) 

Warmup complete CPU 0 instructions: 50000002 cycles: 12501024 (Simulation time: 0 hr 3 min 2 sec) 

Heartbeat CPU 0 instructions: 60000004 cycles: 28315303 heartbeat IPC: 0.632341 cumulative IPC: 0.632341 (Simulation time: 0 hr 4 min 2 sec) 
Heartbeat CPU 0 instructions: 70000000 cycles: 44621275 heartbeat IPC: 0.613272 cumulative IPC: 0.622661 (Simulation time: 0 hr 5 min 4 sec) 
Heartbeat CPU 0 instructions: 80000000 cycles: 60599311 heartbeat IPC: 0.62586 cumulative IPC: 0.623723 (Simulation time: 0 hr 6 min 5 sec) 
Heartbeat CPU 0 instructions: 90000004 cycles: 76037239 heartbeat IPC: 0.647756 cumulative IPC: 0.629563 (Simulation time: 0 hr 7 min 5 sec) 
Heartbeat CPU 0 instructions: 100000001 cycles: 91977782 heartbeat IPC: 0.627332 cumulative IPC: 0.629115 (Simulation time: 0 hr 8 min 6 sec) 
*** Reached end of trace: /gpfs/projects/bsc18/MN4/bsc18/romol/ChampSim/traces/qualcomm_srv/srv760_ap.champsimtrace.xz
Heartbeat CPU 0 instructions: 110000003 cycles: 107604450 heartbeat IPC: 0.639932 cumulative IPC: 0.630893 (Simulation time: 0 hr 9 min 7 sec) 
Heartbeat CPU 0 instructions: 120000000 cycles: 121949975 heartbeat IPC: 0.697082 cumulative IPC: 0.639568 (Simulation time: 0 hr 10 min 6 sec) 
Heartbeat CPU 0 instructions: 130000002 cycles: 137285352 heartbeat IPC: 0.652088 cumulative IPC: 0.641107 (Simulation time: 0 hr 11 min 7 sec) 
Heartbeat CPU 0 instructions: 140000002 cycles: 151733620 heartbeat IPC: 0.692125 cumulative IPC: 0.646401 (Simulation time: 0 hr 12 min 6 sec) 
Heartbeat CPU 0 instructions: 150000001 cycles: 167522198 heartbeat IPC: 0.63337 cumulative IPC: 0.645074 (Simulation time: 0 hr 13 min 7 sec) 
Simulation finished CPU 0 instructions: 100000002 cycles: 155021176 cumulative IPC: 0.645074 (Simulation time: 0 hr 13 min 7 sec) 

Simulation complete CPU 0 instructions: 100000002 cycles: 155021176 (Simulation time: 0 hr 13 min 7 sec) 


ChampSim completed all CPUs

Saving instructions large page distribution to /home/bsc/bsc018186/scratch/itp_asplos25_AE/dump/srv760_ap.pdst...
Saving data large page distribution to /home/bsc/bsc018186/scratch/itp_asplos25_AE/dump/srv760_ap.pdst...
=== Simulation ===
CPU 0 runs /gpfs/projects/bsc18/MN4/bsc18/romol/ChampSim/traces/qualcomm_srv/srv760_ap.champsimtrace.xz

Region of Interest Statistics

CPU 0 cumulative IPC: 0.645074 instructions: 100000002 cycles: 155021176
CPU 0 Branch Prediction Accuracy: 83.3871% MPKI: 29.7046 Average ROB Occupancy at Mispredict: 12.7441
Branch type MPKI
BRANCH_DIRECT_JUMP: 1.02208
BRANCH_INDIRECT: 15.2815
BRANCH_CONDITIONAL: 9.72535
BRANCH_DIRECT_CALL: 1.83908
BRANCH_INDIRECT_CALL: 0.5038
BRANCH_RETURN: 1.33272

Instructions large pages: 0
Instructions small pages: 11499
Large page distribution for instructions: 0%

Data large pages: 0
Data small pages: 10439
Large page distribution for data: 0%

cpu0_L1I TOTAL       ACCESS:   34663766  HIT:   26921587  MISS:    7742179  iACCESS:   34663766  iHIT:   26921587  iMISS:    7742179  dACCESS:          0  dHIT:          0  dMISS:          0  itACCESS:          0  itHIT:          0  itMISS:          0  dtACCESS:          0  dtHIT:          0  dtMISS:          0
cpu0_L1I LOAD         ACCESS:   10186014  HIT:    8004552  MISS:    2181462  iACCESS:   10186014  iHIT:    8004552  iMISS:    2181462  dACCESS:          0  dHIT:          0  dMISS:          0  itACCESS:          0  itHIT:          0  itMISS:          0  dtACCESS:          0  dtHIT:          0  dtMISS:          0
cpu0_L1I RFO          ACCESS:          0  HIT:          0  MISS:          0  iACCESS:          0  iHIT:          0  iMISS:          0  dACCESS:          0  dHIT:          0  dMISS:          0  itACCESS:          0  itHIT:          0  itMISS:          0  dtACCESS:          0  dtHIT:          0  dtMISS:          0
cpu0_L1I PREFETCH     ACCESS:   24477752  HIT:   18917035  MISS:    5560717  iACCESS:   24477752  iHIT:   18917035  iMISS:    5560717  dACCESS:          0  dHIT:          0  dMISS:          0  itACCESS:          0  itHIT:          0  itMISS:          0  dtACCESS:          0  dtHIT:          0  dtMISS:          0
cpu0_L1I WRITE        ACCESS:          0  HIT:          0  MISS:          0  iACCESS:          0  iHIT:          0  iMISS:          0  dACCESS:          0  dHIT:          0  dMISS:          0  itACCESS:          0  itHIT:          0  itMISS:          0  dtACCESS:          0  dtHIT:          0  dtMISS:          0
cpu0_L1I TRANSLATION  ACCESS:          0  HIT:          0  MISS:          0  iACCESS:          0  iHIT:          0  iMISS:          0  dACCESS:          0  dHIT:          0  dMISS:          0  itACCESS:          0  itHIT:          0  itMISS:          0  dtACCESS:          0  dtHIT:          0  dtMISS:          0
cpu0_L1I PREFETCH  REQUESTED:   27058505  ISSUED:   27058502  CROSSED:          0  USEFUL:    1880096  USELESS:     624040
cpu0_L1I AVERAGE iMISS LATENCY: 13.2993 cycles
cpu0_L1I AVERAGE dMISS LATENCY: 0 cycles
cpu0_L1I AVERAGE itMISS LATENCY: 0 cycles
cpu0_L1I AVERAGE dtMISS LATENCY: 0 cycles
cpu0_L1I PAGE CROSSINGS (TLB HIT):         0 
cpu0_L1I PAGE CROSSINGS (TLB MISS):         0 
cpu0_L1I AVERAGE MISS LATENCY: 13.2993 cycles
cpu0_ITLB TOTAL       ACCESS:   28953008  HIT:   26978671  MISS:    1974337  iACCESS:   28953008  iHIT:   26978671  iMISS:    1974337  dACCESS:          0  dHIT:          0  dMISS:          0  itACCESS:          0  itHIT:          0  itMISS:          0  dtACCESS:          0  dtHIT:          0  dtMISS:          0
cpu0_ITLB LOAD         ACCESS:   28953008  HIT:   26978671  MISS:    1974337  iACCESS:   28953008  iHIT:   26978671  iMISS:    1974337  dACCESS:          0  dHIT:          0  dMISS:          0  itACCESS:          0  itHIT:          0  itMISS:          0  dtACCESS:          0  dtHIT:          0  dtMISS:          0
cpu0_ITLB RFO          ACCESS:          0  HIT:          0  MISS:          0  iACCESS:          0  iHIT:          0  iMISS:          0  dACCESS:          0  dHIT:          0  dMISS:          0  itACCESS:          0  itHIT:          0  itMISS:          0  dtACCESS:          0  dtHIT:          0  dtMISS:          0
cpu0_ITLB PREFETCH     ACCESS:          0  HIT:          0  MISS:          0  iACCESS:          0  iHIT:          0  iMISS:          0  dACCESS:          0  dHIT:          0  dMISS:          0  itACCESS:          0  itHIT:          0  itMISS:          0  dtACCESS:          0  dtHIT:          0  dtMISS:          0
cpu0_ITLB WRITE        ACCESS:          0  HIT:          0  MISS:          0  iACCESS:          0  iHIT:          0  iMISS:          0  dACCESS:          0  dHIT:          0  dMISS:          0  itACCESS:          0  itHIT:          0  itMISS:          0  dtACCESS:          0  dtHIT:          0  dtMISS:          0
cpu0_ITLB TRANSLATION  ACCESS:          0  HIT:          0  MISS:          0  iACCESS:          0  iHIT:          0  iMISS:          0  dACCESS:          0  dHIT:          0  dMISS:          0  itACCESS:          0  itHIT:          0  itMISS:          0  dtACCESS:          0  dtHIT:          0  dtMISS:          0
cpu0_ITLB PREFETCH  REQUESTED:          0  ISSUED:          0  CROSSED:          0  USEFUL:     319304  USELESS:      66587
cpu0_ITLB AVERAGE iMISS LATENCY: 5.30393 cycles
cpu0_ITLB AVERAGE dMISS LATENCY: 0 cycles
cpu0_ITLB AVERAGE itMISS LATENCY: 0 cycles
cpu0_ITLB AVERAGE dtMISS LATENCY: 0 cycles
cpu0_ITLB PAGE CROSSINGS (TLB HIT):         0 
cpu0_ITLB PAGE CROSSINGS (TLB MISS):         0 
cpu0_ITLB AVERAGE MISS LATENCY: 5.30393 cycles
cpu0_DTLB TOTAL       ACCESS:   27665913  HIT:   25768463  MISS:    1897450  iACCESS:          0  iHIT:          0  iMISS:          0  dACCESS:   27665913  dHIT:   25768463  dMISS:    1897450  itACCESS:          0  itHIT:          0  itMISS:          0  dtACCESS:          0  dtHIT:          0  dtMISS:          0
cpu0_DTLB LOAD         ACCESS:   27665913  HIT:   25768463  MISS:    1897450  iACCESS:          0  iHIT:          0  iMISS:          0  dACCESS:   27665913  dHIT:   25768463  dMISS:    1897450  itACCESS:          0  itHIT:          0  itMISS:          0  dtACCESS:          0  dtHIT:          0  dtMISS:          0
cpu0_DTLB RFO          ACCESS:          0  HIT:          0  MISS:          0  iACCESS:          0  iHIT:          0  iMISS:          0  dACCESS:          0  dHIT:          0  dMISS:          0  itACCESS:          0  itHIT:          0  itMISS:          0  dtACCESS:          0  dtHIT:          0  dtMISS:          0
cpu0_DTLB PREFETCH     ACCESS:          0  HIT:          0  MISS:          0  iACCESS:          0  iHIT:          0  iMISS:          0  dACCESS:          0  dHIT:          0  dMISS:          0  itACCESS:          0  itHIT:          0  itMISS:          0  dtACCESS:          0  dtHIT:          0  dtMISS:          0
cpu0_DTLB WRITE        ACCESS:          0  HIT:          0  MISS:          0  iACCESS:          0  iHIT:          0  iMISS:          0  dACCESS:          0  dHIT:          0  dMISS:          0  itACCESS:          0  itHIT:          0  itMISS:          0  dtACCESS:          0  dtHIT:          0  dtMISS:          0
cpu0_DTLB TRANSLATION  ACCESS:          0  HIT:          0  MISS:          0  iACCESS:          0  iHIT:          0  iMISS:          0  dACCESS:          0  dHIT:          0  dMISS:          0  itACCESS:          0  itHIT:          0  itMISS:          0  dtACCESS:          0  dtHIT:          0  dtMISS:          0
cpu0_DTLB PREFETCH  REQUESTED:          0  ISSUED:          0  CROSSED:          0  USEFUL:          0  USELESS:          0
cpu0_DTLB AVERAGE iMISS LATENCY: 0 cycles
cpu0_DTLB AVERAGE dMISS LATENCY: 16.0083 cycles
cpu0_DTLB AVERAGE itMISS LATENCY: 0 cycles
cpu0_DTLB AVERAGE dtMISS LATENCY: 0 cycles
cpu0_DTLB PAGE CROSSINGS (TLB HIT):         0 
cpu0_DTLB PAGE CROSSINGS (TLB MISS):         0 
cpu0_DTLB AVERAGE MISS LATENCY: 16.0083 cycles
cpu0_STLB TOTAL       ACCESS:    1536747  HIT:    1363330  MISS:     173417  iACCESS:     385892  iHIT:     322920  iMISS:      62972  dACCESS:    1150855  dHIT:    1040410  dMISS:     110445  itACCESS:          0  itHIT:          0  itMISS:          0  dtACCESS:          0  dtHIT:          0  dtMISS:          0
cpu0_STLB LOAD         ACCESS:    1536747  HIT:    1363330  MISS:     173417  iACCESS:     385892  iHIT:     322920  iMISS:      62972  dACCESS:    1150855  dHIT:    1040410  dMISS:     110445  itACCESS:          0  itHIT:          0  itMISS:          0  dtACCESS:          0  dtHIT:          0  dtMISS:          0
cpu0_STLB RFO          ACCESS:          0  HIT:          0  MISS:          0  iACCESS:          0  iHIT:          0  iMISS:          0  dACCESS:          0  dHIT:          0  dMISS:          0  itACCESS:          0  itHIT:          0  itMISS:          0  dtACCESS:          0  dtHIT:          0  dtMISS:          0
cpu0_STLB PREFETCH     ACCESS:          0  HIT:          0  MISS:          0  iACCESS:          0  iHIT:          0  iMISS:          0  dACCESS:          0  dHIT:          0  dMISS:          0  itACCESS:          0  itHIT:          0  itMISS:          0  dtACCESS:          0  dtHIT:          0  dtMISS:          0
cpu0_STLB WRITE        ACCESS:          0  HIT:          0  MISS:          0  iACCESS:          0  iHIT:          0  iMISS:          0  dACCESS:          0  dHIT:          0  dMISS:          0  itACCESS:          0  itHIT:          0  itMISS:          0  dtACCESS:          0  dtHIT:          0  dtMISS:          0
cpu0_STLB TRANSLATION  ACCESS:          0  HIT:          0  MISS:          0  iACCESS:          0  iHIT:          0  iMISS:          0  dACCESS:          0  dHIT:          0  dMISS:          0  itACCESS:          0  itHIT:          0  itMISS:          0  dtACCESS:          0  dtHIT:          0  dtMISS:          0
cpu0_STLB PREFETCH  REQUESTED:          0  ISSUED:          0  CROSSED:          0  USEFUL:          0  USELESS:          0
cpu0_STLB AVERAGE iMISS LATENCY: 42.7671 cycles
cpu0_STLB AVERAGE dMISS LATENCY: 122.122 cycles
cpu0_STLB AVERAGE itMISS LATENCY: 0 cycles
cpu0_STLB AVERAGE dtMISS LATENCY: 0 cycles
cpu0_STLB PAGE CROSSINGS (TLB HIT):         0 
cpu0_STLB PAGE CROSSINGS (TLB MISS):         0 
cpu0_STLB AVERAGE MISS LATENCY: 164.889 cycles
cpu0_L1D TOTAL       ACCESS:   41380008  HIT:   37947397  MISS:    3432611  iACCESS:          0  iHIT:          0  iMISS:          0  dACCESS:   41147961  dHIT:   37926396  dMISS:    3221565  itACCESS:      68389  itHIT:       9705  itMISS:      58684  dtACCESS:     163658  dtHIT:      11296  dtMISS:     152362
cpu0_L1D LOAD         ACCESS:   18891331  HIT:   17427336  MISS:    1463995  iACCESS:          0  iHIT:          0  iMISS:          0  dACCESS:   18891331  dHIT:   17427336  dMISS:    1463995  itACCESS:          0  itHIT:          0  itMISS:          0  dtACCESS:          0  dtHIT:          0  dtMISS:          0
cpu0_L1D RFO          ACCESS:          0  HIT:          0  MISS:          0  iACCESS:          0  iHIT:          0  iMISS:          0  dACCESS:          0  dHIT:          0  dMISS:          0  itACCESS:          0  itHIT:          0  itMISS:          0  dtACCESS:          0  dtHIT:          0  dtMISS:          0
cpu0_L1D PREFETCH     ACCESS:   12072463  HIT:   10762324  MISS:    1310139  iACCESS:          0  iHIT:          0  iMISS:          0  dACCESS:   12072463  dHIT:   10762324  dMISS:    1310139  itACCESS:          0  itHIT:          0  itMISS:          0  dtACCESS:          0  dtHIT:          0  dtMISS:          0
cpu0_L1D WRITE        ACCESS:   10184167  HIT:    9736736  MISS:     447431  iACCESS:          0  iHIT:          0  iMISS:          0  dACCESS:   10184167  dHIT:    9736736  dMISS:     447431  itACCESS:          0  itHIT:          0  itMISS:          0  dtACCESS:          0  dtHIT:          0  dtMISS:          0
cpu0_L1D TRANSLATION  ACCESS:     232047  HIT:      21001  MISS:     211046  iACCESS:          0  iHIT:          0  iMISS:          0  dACCESS:          0  dHIT:          0  dMISS:          0  itACCESS:      68389  itHIT:       9705  itMISS:      58684  dtACCESS:     163658  dtHIT:      11296  dtMISS:     152362
cpu0_L1D PREFETCH  REQUESTED:   18891331  ISSUED:   16878118  CROSSED:          0  USEFUL:     302639  USELESS:     694545
cpu0_L1D AVERAGE iMISS LATENCY: 0 cycles
cpu0_L1D AVERAGE dMISS LATENCY: 33.6351 cycles
cpu0_L1D AVERAGE itMISS LATENCY: 1.99518 cycles
cpu0_L1D AVERAGE dtMISS LATENCY: 5.39324 cycles
cpu0_L1D PAGE CROSSINGS (TLB HIT):         0 
cpu0_L1D PAGE CROSSINGS (TLB MISS):         0 
cpu0_L1D AVERAGE MISS LATENCY: 41.0235 cycles
cpu0_L2C TOTAL       ACCESS:    6880739  HIT:    3978815  MISS:    2901924  iACCESS:    3257055  iHIT:    2168266  iMISS:    1088789  dACCESS:    3418978  dHIT:    1779673  dMISS:    1639305  itACCESS:      58684  itHIT:      11063  itMISS:      47621  dtACCESS:     146022  dtHIT:      19813  dtMISS:     126209
cpu0_L2C LOAD         ACCESS:    1709576  HIT:    1023674  MISS:     685902  iACCESS:     788095  iHIT:     548485  iMISS:     239610  dACCESS:     921481  dHIT:     475189  dMISS:     446292  itACCESS:          0  itHIT:          0  itMISS:          0  dtACCESS:          0  dtHIT:          0  dtMISS:          0
cpu0_L2C RFO          ACCESS:     156104  HIT:      69425  MISS:      86679  iACCESS:          0  iHIT:          0  iMISS:          0  dACCESS:     156104  dHIT:      69425  dMISS:      86679  itACCESS:          0  itHIT:          0  itMISS:          0  dtACCESS:          0  dtHIT:          0  dtMISS:          0
cpu0_L2C PREFETCH     ACCESS:    4527080  HIT:    2572800  MISS:    1954280  iACCESS:    2468960  iHIT:    1619781  iMISS:     849179  dACCESS:    2058120  dHIT:     953019  dMISS:    1105101  itACCESS:          0  itHIT:          0  itMISS:          0  dtACCESS:          0  dtHIT:          0  dtMISS:          0
cpu0_L2C WRITE        ACCESS:     283273  HIT:     282040  MISS:       1233  iACCESS:          0  iHIT:          0  iMISS:          0  dACCESS:     283273  dHIT:     282040  dMISS:       1233  itACCESS:          0  itHIT:          0  itMISS:          0  dtACCESS:          0  dtHIT:          0  dtMISS:          0
cpu0_L2C TRANSLATION  ACCESS:     204706  HIT:      30876  MISS:     173830  iACCESS:          0  iHIT:          0  iMISS:          0  dACCESS:          0  dHIT:          0  dMISS:          0  itACCESS:      58684  itHIT:      11063  itMISS:      47621  dtACCESS:     146022  dtHIT:      19813  dtMISS:     126209
cpu0_L2C PREFETCH  REQUESTED:    1308565  ISSUED:    1308565  CROSSED:          0  USEFUL:     305291  USELESS:     224154
cpu0_L2C AVERAGE iMISS LATENCY: 25.4067 cycles
cpu0_L2C AVERAGE dMISS LATENCY: 46.8209 cycles
cpu0_L2C AVERAGE itMISS LATENCY: 2.16115 cycles
cpu0_L2C AVERAGE dtMISS LATENCY: 5.87921 cycles
cpu0_L2C PAGE CROSSINGS (TLB HIT):         0 
cpu0_L2C PAGE CROSSINGS (TLB MISS):         0 
cpu0_L2C AVERAGE MISS LATENCY: 80.2678 cycles
LLC TOTAL       ACCESS:    2931944  HIT:    1803628  MISS:    1128316  iACCESS:    1036068  iHIT:     674962  iMISS:     361106  dACCESS:    1722046  dHIT:    1067549  dMISS:     654497  itACCESS:      47621  itHIT:      16477  itMISS:      31144  dtACCESS:     126209  dtHIT:      44640  dtMISS:      81569
LLC LOAD         ACCESS:     684708  HIT:     441023  MISS:     243685  iACCESS:     238648  iHIT:     160864  iMISS:      77784  dACCESS:     446060  dHIT:     280159  dMISS:     165901  itACCESS:          0  itHIT:          0  itMISS:          0  dtACCESS:          0  dtHIT:          0  dtMISS:          0
LLC RFO          ACCESS:      86676  HIT:      44665  MISS:      42011  iACCESS:          0  iHIT:          0  iMISS:          0  dACCESS:      86676  dHIT:      44665  dMISS:      42011  itACCESS:          0  itHIT:          0  itMISS:          0  dtACCESS:          0  dtHIT:          0  dtMISS:          0
LLC PREFETCH     ACCESS:    1849780  HIT:    1125998  MISS:     723782  iACCESS:     797420  iHIT:     514098  iMISS:     283322  dACCESS:    1052360  dHIT:     611900  dMISS:     440460  itACCESS:          0  itHIT:          0  itMISS:          0  dtACCESS:          0  dtHIT:          0  dtMISS:          0
LLC WRITE        ACCESS:     136950  HIT:     130825  MISS:       6125  iACCESS:          0  iHIT:          0  iMISS:          0  dACCESS:     136950  dHIT:     130825  dMISS:       6125  itACCESS:          0  itHIT:          0  itMISS:          0  dtACCESS:          0  dtHIT:          0  dtMISS:          0
LLC TRANSLATION  ACCESS:     173830  HIT:      61117  MISS:     112713  iACCESS:          0  iHIT:          0  iMISS:          0  dACCESS:          0  dHIT:          0  dMISS:          0  itACCESS:      47621  itHIT:      16477  itMISS:      31144  dtACCESS:     126209  dtHIT:      44640  dtMISS:      81569
LLC PREFETCH  REQUESTED:          0  ISSUED:          0  CROSSED:          0  USEFUL:          0  USELESS:          0
LLC AVERAGE iMISS LATENCY: 47.4967 cycles
LLC AVERAGE dMISS LATENCY: 93.2079 cycles
LLC AVERAGE itMISS LATENCY: 4.73069 cycles
LLC AVERAGE dtMISS LATENCY: 12.9299 cycles
LLC PAGE CROSSINGS (TLB HIT):         0 
LLC PAGE CROSSINGS (TLB MISS):         0 
LLC AVERAGE MISS LATENCY: 158.366 cycles

PageTableWalker TOTAL       ACCESS:      84961  
PageTableWalker AVERAGE LATENCY: 5.24247 cycles
PageTableWalker TOTAL LATENCY: 445405 cycles

DRAM Statistics
Channel 0
 RQ ROW_BUFFER_HIT:     289953
  ROW_BUFFER_MISS:     832131
 AVG DBUS CONGESTED CYCLE:    3.61459
 WQ ROW_BUFFER_HIT:      23722
  ROW_BUFFER_MISS:      22078  FULL:          0

