last_page:0x200000000000000
VMEM_RES_CAP:0x100000
PAGE_SIZE:4096
LOG2_PAGE_SIZE:12
LOG2_PAGE_TABLE_SIZE:9
page_table_levels:5
WARNING: physical memory size is smaller than virtual memory size
FDiP enabled with aggresivity 16

*** ChampSim Multicore Out-of-Order Simulator ***

Warmup Instructions: 50000000
Simulation Instructions: 100000000
Number of CPUs: 1
Small page size: 4096
Large page size: 2097152

CPU 0 Bimodal branch predictor
Basic BTB sets: 1024 ways: 8 indirect buffer size: 4096 RAS size: 64
Instruction page size distrubution: 0
Loading instruction page size distribution from /home/bsc/bsc018186/scratch/itp_asplos25_AE/dump/srv743_ap.pdst
Data page size distrubution: 0
Loading data page size distribution from /home/bsc/bsc018186/scratch/itp_asplos25_AE/dump/srv743_ap.pdst
cpu0_L2C IP-based stride prefetcher
cpu0_L1D next line prefetcher
CHiRPing...
cpu0_L1I next line prefetcher
Off-chip DRAM Size: 4 GiB Channels: 1 Width: 64-bit Data Rate: 3200 MT/s
Heartbeat CPU 0 instructions: 10000003 cycles: 2500485 heartbeat IPC: 3.99923 cumulative IPC: 3.99923 (Simulation time: 0 hr 0 min 38 sec) 
Heartbeat CPU 0 instructions: 20000001 cycles: 5000757 heartbeat IPC: 3.99957 cumulative IPC: 3.9994 (Simulation time: 0 hr 1 min 18 sec) 
Heartbeat CPU 0 instructions: 30000002 cycles: 7500926 heartbeat IPC: 3.99974 cumulative IPC: 3.99951 (Simulation time: 0 hr 1 min 59 sec) 
Heartbeat CPU 0 instructions: 40000001 cycles: 10001734 heartbeat IPC: 3.99871 cumulative IPC: 3.99931 (Simulation time: 0 hr 2 min 39 sec) 
Heartbeat CPU 0 instructions: 50000003 cycles: 12502203 heartbeat IPC: 3.99926 cumulative IPC: 3.9993 (Simulation time: 0 hr 3 min 20 sec) 
Warmup finished CPU 0 instructions: 50000003 cycles: 12502204 cumulative IPC: 3.9993 (Simulation time: 0 hr 3 min 20 sec) 

Warmup complete CPU 0 instructions: 50000003 cycles: 12502204 (Simulation time: 0 hr 3 min 20 sec) 

Heartbeat CPU 0 instructions: 60000001 cycles: 25749350 heartbeat IPC: 0.75488 cumulative IPC: 0.75488 (Simulation time: 0 hr 4 min 23 sec) 
Heartbeat CPU 0 instructions: 70000004 cycles: 35326899 heartbeat IPC: 1.04411 cumulative IPC: 0.876244 (Simulation time: 0 hr 5 min 20 sec) 
Heartbeat CPU 0 instructions: 80000003 cycles: 52883547 heartbeat IPC: 0.569585 cumulative IPC: 0.742918 (Simulation time: 0 hr 6 min 30 sec) 
Heartbeat CPU 0 instructions: 90000002 cycles: 70866429 heartbeat IPC: 0.556085 cumulative IPC: 0.685352 (Simulation time: 0 hr 7 min 41 sec) 
Heartbeat CPU 0 instructions: 100000003 cycles: 88793597 heartbeat IPC: 0.557813 cumulative IPC: 0.655382 (Simulation time: 0 hr 8 min 51 sec) 
*** Reached end of trace: /gpfs/projects/bsc18/MN4/bsc18/romol/ChampSim/traces/qualcomm_srv/srv743_ap.champsimtrace.xz
Heartbeat CPU 0 instructions: 110000004 cycles: 105853702 heartbeat IPC: 0.586163 cumulative IPC: 0.642733 (Simulation time: 0 hr 9 min 59 sec) 
Heartbeat CPU 0 instructions: 120000000 cycles: 123474495 heartbeat IPC: 0.567512 cumulative IPC: 0.630789 (Simulation time: 0 hr 11 min 8 sec) 
Heartbeat CPU 0 instructions: 130000001 cycles: 141375050 heartbeat IPC: 0.558642 cumulative IPC: 0.620767 (Simulation time: 0 hr 12 min 18 sec) 
Heartbeat CPU 0 instructions: 140000001 cycles: 159038030 heartbeat IPC: 0.566156 cumulative IPC: 0.614185 (Simulation time: 0 hr 13 min 27 sec) 
Heartbeat CPU 0 instructions: 150000001 cycles: 176265712 heartbeat IPC: 0.580462 cumulative IPC: 0.610637 (Simulation time: 0 hr 14 min 35 sec) 
Simulation finished CPU 0 instructions: 100000003 cycles: 163763510 cumulative IPC: 0.610637 (Simulation time: 0 hr 14 min 35 sec) 

Simulation complete CPU 0 instructions: 100000003 cycles: 163763510 (Simulation time: 0 hr 14 min 35 sec) 


ChampSim completed all CPUs

Saving instructions large page distribution to /home/bsc/bsc018186/scratch/itp_asplos25_AE/dump/srv743_ap.pdst...
Saving data large page distribution to /home/bsc/bsc018186/scratch/itp_asplos25_AE/dump/srv743_ap.pdst...
=== Simulation ===
CPU 0 runs /gpfs/projects/bsc18/MN4/bsc18/romol/ChampSim/traces/qualcomm_srv/srv743_ap.champsimtrace.xz

Region of Interest Statistics

CPU 0 cumulative IPC: 0.610637 instructions: 100000003 cycles: 163763510
CPU 0 Branch Prediction Accuracy: 84.7044% MPKI: 29.3751 Average ROB Occupancy at Mispredict: 12.8716
Branch type MPKI
BRANCH_DIRECT_JUMP: 1.07633
BRANCH_INDIRECT: 14.8497
BRANCH_CONDITIONAL: 9.39464
BRANCH_DIRECT_CALL: 2.03056
BRANCH_INDIRECT_CALL: 0.58903
BRANCH_RETURN: 1.43487

Instructions large pages: 0
Instructions small pages: 1170
Large page distribution for instructions: 0%

Data large pages: 0
Data small pages: 10061
Large page distribution for data: 0%

cpu0_L1I TOTAL       ACCESS:   34104692  HIT:   27117402  MISS:    6987290  iACCESS:   34104692  iHIT:   27117402  iMISS:    6987290  dACCESS:          0  dHIT:          0  dMISS:          0  itACCESS:          0  itHIT:          0  itMISS:          0  dtACCESS:          0  dtHIT:          0  dtMISS:          0
cpu0_L1I LOAD         ACCESS:    9166490  HIT:    7214209  MISS:    1952281  iACCESS:    9166490  iHIT:    7214209  iMISS:    1952281  dACCESS:          0  dHIT:          0  dMISS:          0  itACCESS:          0  itHIT:          0  itMISS:          0  dtACCESS:          0  dtHIT:          0  dtMISS:          0
cpu0_L1I RFO          ACCESS:          0  HIT:          0  MISS:          0  iACCESS:          0  iHIT:          0  iMISS:          0  dACCESS:          0  dHIT:          0  dMISS:          0  itACCESS:          0  itHIT:          0  itMISS:          0  dtACCESS:          0  dtHIT:          0  dtMISS:          0
cpu0_L1I PREFETCH     ACCESS:   24938202  HIT:   19903193  MISS:    5035009  iACCESS:   24938202  iHIT:   19903193  iMISS:    5035009  dACCESS:          0  dHIT:          0  dMISS:          0  itACCESS:          0  itHIT:          0  itMISS:          0  dtACCESS:          0  dtHIT:          0  dtMISS:          0
cpu0_L1I WRITE        ACCESS:          0  HIT:          0  MISS:          0  iACCESS:          0  iHIT:          0  iMISS:          0  dACCESS:          0  dHIT:          0  dMISS:          0  itACCESS:          0  itHIT:          0  itMISS:          0  dtACCESS:          0  dtHIT:          0  dtMISS:          0
cpu0_L1I TRANSLATION  ACCESS:          0  HIT:          0  MISS:          0  iACCESS:          0  iHIT:          0  iMISS:          0  dACCESS:          0  dHIT:          0  dMISS:          0  itACCESS:          0  itHIT:          0  itMISS:          0  dtACCESS:          0  dtHIT:          0  dtMISS:          0
cpu0_L1I PREFETCH  REQUESTED:   27174876  ISSUED:   27174876  CROSSED:          0  USEFUL:    1716834  USELESS:     576163
cpu0_L1I AVERAGE iMISS LATENCY: 15.6032 cycles
cpu0_L1I AVERAGE dMISS LATENCY: 0 cycles
cpu0_L1I AVERAGE itMISS LATENCY: 0 cycles
cpu0_L1I AVERAGE dtMISS LATENCY: 0 cycles
cpu0_L1I PAGE CROSSINGS (TLB HIT):         0 
cpu0_L1I PAGE CROSSINGS (TLB MISS):         0 
cpu0_L1I AVERAGE MISS LATENCY: 15.6032 cycles
cpu0_ITLB TOTAL       ACCESS:   28693672  HIT:   26924987  MISS:    1768685  iACCESS:   28693672  iHIT:   26924987  iMISS:    1768685  dACCESS:          0  dHIT:          0  dMISS:          0  itACCESS:          0  itHIT:          0  itMISS:          0  dtACCESS:          0  dtHIT:          0  dtMISS:          0
cpu0_ITLB LOAD         ACCESS:   28693672  HIT:   26924987  MISS:    1768685  iACCESS:   28693672  iHIT:   26924987  iMISS:    1768685  dACCESS:          0  dHIT:          0  dMISS:          0  itACCESS:          0  itHIT:          0  itMISS:          0  dtACCESS:          0  dtHIT:          0  dtMISS:          0
cpu0_ITLB RFO          ACCESS:          0  HIT:          0  MISS:          0  iACCESS:          0  iHIT:          0  iMISS:          0  dACCESS:          0  dHIT:          0  dMISS:          0  itACCESS:          0  itHIT:          0  itMISS:          0  dtACCESS:          0  dtHIT:          0  dtMISS:          0
cpu0_ITLB PREFETCH     ACCESS:          0  HIT:          0  MISS:          0  iACCESS:          0  iHIT:          0  iMISS:          0  dACCESS:          0  dHIT:          0  dMISS:          0  itACCESS:          0  itHIT:          0  itMISS:          0  dtACCESS:          0  dtHIT:          0  dtMISS:          0
cpu0_ITLB WRITE        ACCESS:          0  HIT:          0  MISS:          0  iACCESS:          0  iHIT:          0  iMISS:          0  dACCESS:          0  dHIT:          0  dMISS:          0  itACCESS:          0  itHIT:          0  itMISS:          0  dtACCESS:          0  dtHIT:          0  dtMISS:          0
cpu0_ITLB TRANSLATION  ACCESS:          0  HIT:          0  MISS:          0  iACCESS:          0  iHIT:          0  iMISS:          0  dACCESS:          0  dHIT:          0  dMISS:          0  itACCESS:          0  itHIT:          0  itMISS:          0  dtACCESS:          0  dtHIT:          0  dtMISS:          0
cpu0_ITLB PREFETCH  REQUESTED:          0  ISSUED:          0  CROSSED:          0  USEFUL:     293164  USELESS:      60316
cpu0_ITLB AVERAGE iMISS LATENCY: 6.87856 cycles
cpu0_ITLB AVERAGE dMISS LATENCY: 0 cycles
cpu0_ITLB AVERAGE itMISS LATENCY: 0 cycles
cpu0_ITLB AVERAGE dtMISS LATENCY: 0 cycles
cpu0_ITLB PAGE CROSSINGS (TLB HIT):         0 
cpu0_ITLB PAGE CROSSINGS (TLB MISS):         0 
cpu0_ITLB AVERAGE MISS LATENCY: 6.87856 cycles
cpu0_DTLB TOTAL       ACCESS:   29523539  HIT:   25394122  MISS:    4129417  iACCESS:          0  iHIT:          0  iMISS:          0  dACCESS:   29523539  dHIT:   25394122  dMISS:    4129417  itACCESS:          0  itHIT:          0  itMISS:          0  dtACCESS:          0  dtHIT:          0  dtMISS:          0
cpu0_DTLB LOAD         ACCESS:   29523539  HIT:   25394122  MISS:    4129417  iACCESS:          0  iHIT:          0  iMISS:          0  dACCESS:   29523539  dHIT:   25394122  dMISS:    4129417  itACCESS:          0  itHIT:          0  itMISS:          0  dtACCESS:          0  dtHIT:          0  dtMISS:          0
cpu0_DTLB RFO          ACCESS:          0  HIT:          0  MISS:          0  iACCESS:          0  iHIT:          0  iMISS:          0  dACCESS:          0  dHIT:          0  dMISS:          0  itACCESS:          0  itHIT:          0  itMISS:          0  dtACCESS:          0  dtHIT:          0  dtMISS:          0
cpu0_DTLB PREFETCH     ACCESS:          0  HIT:          0  MISS:          0  iACCESS:          0  iHIT:          0  iMISS:          0  dACCESS:          0  dHIT:          0  dMISS:          0  itACCESS:          0  itHIT:          0  itMISS:          0  dtACCESS:          0  dtHIT:          0  dtMISS:          0
cpu0_DTLB WRITE        ACCESS:          0  HIT:          0  MISS:          0  iACCESS:          0  iHIT:          0  iMISS:          0  dACCESS:          0  dHIT:          0  dMISS:          0  itACCESS:          0  itHIT:          0  itMISS:          0  dtACCESS:          0  dtHIT:          0  dtMISS:          0
cpu0_DTLB TRANSLATION  ACCESS:          0  HIT:          0  MISS:          0  iACCESS:          0  iHIT:          0  iMISS:          0  dACCESS:          0  dHIT:          0  dMISS:          0  itACCESS:          0  itHIT:          0  itMISS:          0  dtACCESS:          0  dtHIT:          0  dtMISS:          0
cpu0_DTLB PREFETCH  REQUESTED:          0  ISSUED:          0  CROSSED:          0  USEFUL:          0  USELESS:          0
cpu0_DTLB AVERAGE iMISS LATENCY: 0 cycles
cpu0_DTLB AVERAGE dMISS LATENCY: 9.77643 cycles
cpu0_DTLB AVERAGE itMISS LATENCY: 0 cycles
cpu0_DTLB AVERAGE dtMISS LATENCY: 0 cycles
cpu0_DTLB PAGE CROSSINGS (TLB HIT):         0 
cpu0_DTLB PAGE CROSSINGS (TLB MISS):         0 
cpu0_DTLB AVERAGE MISS LATENCY: 9.77643 cycles
cpu0_STLB TOTAL       ACCESS:    2494226  HIT:    2303470  MISS:     190756  iACCESS:     353493  iHIT:     280533  iMISS:      72960  dACCESS:    2140733  dHIT:    2022937  dMISS:     117796  itACCESS:          0  itHIT:          0  itMISS:          0  dtACCESS:          0  dtHIT:          0  dtMISS:          0
cpu0_STLB LOAD         ACCESS:    2494226  HIT:    2303470  MISS:     190756  iACCESS:     353493  iHIT:     280533  iMISS:      72960  dACCESS:    2140733  dHIT:    2022937  dMISS:     117796  itACCESS:          0  itHIT:          0  itMISS:          0  dtACCESS:          0  dtHIT:          0  dtMISS:          0
cpu0_STLB RFO          ACCESS:          0  HIT:          0  MISS:          0  iACCESS:          0  iHIT:          0  iMISS:          0  dACCESS:          0  dHIT:          0  dMISS:          0  itACCESS:          0  itHIT:          0  itMISS:          0  dtACCESS:          0  dtHIT:          0  dtMISS:          0
cpu0_STLB PREFETCH     ACCESS:          0  HIT:          0  MISS:          0  iACCESS:          0  iHIT:          0  iMISS:          0  dACCESS:          0  dHIT:          0  dMISS:          0  itACCESS:          0  itHIT:          0  itMISS:          0  dtACCESS:          0  dtHIT:          0  dtMISS:          0
cpu0_STLB WRITE        ACCESS:          0  HIT:          0  MISS:          0  iACCESS:          0  iHIT:          0  iMISS:          0  dACCESS:          0  dHIT:          0  dMISS:          0  itACCESS:          0  itHIT:          0  itMISS:          0  dtACCESS:          0  dtHIT:          0  dtMISS:          0
cpu0_STLB TRANSLATION  ACCESS:          0  HIT:          0  MISS:          0  iACCESS:          0  iHIT:          0  iMISS:          0  dACCESS:          0  dHIT:          0  dMISS:          0  itACCESS:          0  itHIT:          0  itMISS:          0  dtACCESS:          0  dtHIT:          0  dtMISS:          0
cpu0_STLB PREFETCH  REQUESTED:          0  ISSUED:          0  CROSSED:          0  USEFUL:          0  USELESS:          0
cpu0_STLB AVERAGE iMISS LATENCY: 49.0087 cycles
cpu0_STLB AVERAGE dMISS LATENCY: 121.06 cycles
cpu0_STLB AVERAGE itMISS LATENCY: 0 cycles
cpu0_STLB AVERAGE dtMISS LATENCY: 0 cycles
cpu0_STLB PAGE CROSSINGS (TLB HIT):         0 
cpu0_STLB PAGE CROSSINGS (TLB MISS):         0 
cpu0_STLB AVERAGE MISS LATENCY: 170.068 cycles
cpu0_L1D TOTAL       ACCESS:   44068502  HIT:   38726348  MISS:    5342154  iACCESS:          0  iHIT:          0  iMISS:          0  dACCESS:   43811378  dHIT:   38702863  dMISS:    5108515  itACCESS:      78996  itHIT:      11686  itMISS:      67310  dtACCESS:     178128  dtHIT:      11799  dtMISS:     166329
cpu0_L1D LOAD         ACCESS:   21084325  HIT:   18039953  MISS:    3044372  iACCESS:          0  iHIT:          0  iMISS:          0  dACCESS:   21084325  dHIT:   18039953  dMISS:    3044372  itACCESS:          0  itHIT:          0  itMISS:          0  dtACCESS:          0  dtHIT:          0  dtMISS:          0
cpu0_L1D RFO          ACCESS:          0  HIT:          0  MISS:          0  iACCESS:          0  iHIT:          0  iMISS:          0  dACCESS:          0  dHIT:          0  dMISS:          0  itACCESS:          0  itHIT:          0  itMISS:          0  dtACCESS:          0  dtHIT:          0  dtMISS:          0
cpu0_L1D PREFETCH     ACCESS:   12830904  HIT:   11219045  MISS:    1611859  iACCESS:          0  iHIT:          0  iMISS:          0  dACCESS:   12830904  dHIT:   11219045  dMISS:    1611859  itACCESS:          0  itHIT:          0  itMISS:          0  dtACCESS:          0  dtHIT:          0  dtMISS:          0
cpu0_L1D WRITE        ACCESS:    9896149  HIT:    9443865  MISS:     452284  iACCESS:          0  iHIT:          0  iMISS:          0  dACCESS:    9896149  dHIT:    9443865  dMISS:     452284  itACCESS:          0  itHIT:          0  itMISS:          0  dtACCESS:          0  dtHIT:          0  dtMISS:          0
cpu0_L1D TRANSLATION  ACCESS:     257124  HIT:      23485  MISS:     233639  iACCESS:          0  iHIT:          0  iMISS:          0  dACCESS:          0  dHIT:          0  dMISS:          0  itACCESS:      78996  itHIT:      11686  itMISS:      67310  dtACCESS:     178128  dtHIT:      11799  dtMISS:     166329
cpu0_L1D PREFETCH  REQUESTED:   21084325  ISSUED:   17420951  CROSSED:          0  USEFUL:     272308  USELESS:     836999
cpu0_L1D AVERAGE iMISS LATENCY: 0 cycles
cpu0_L1D AVERAGE dMISS LATENCY: 27.3689 cycles
cpu0_L1D AVERAGE itMISS LATENCY: 1.62693 cycles
cpu0_L1D AVERAGE dtMISS LATENCY: 3.85335 cycles
cpu0_L1D PAGE CROSSINGS (TLB HIT):         0 
cpu0_L1D PAGE CROSSINGS (TLB MISS):         0 
cpu0_L1D AVERAGE MISS LATENCY: 32.8491 cycles
cpu0_L2C TOTAL       ACCESS:    8085584  HIT:    5187380  MISS:    2898204  iACCESS:    2966972  iHIT:    1865002  iMISS:    1101970  dACCESS:    4897219  dHIT:    3289010  dMISS:    1608209  itACCESS:      67310  itHIT:      11386  itMISS:      55924  dtACCESS:     154083  dtHIT:      21982  dtMISS:     132101
cpu0_L2C LOAD         ACCESS:    3067677  HIT:    2381524  MISS:     686153  iACCESS:     704720  iHIT:     464322  iMISS:     240398  dACCESS:    2362957  dHIT:    1917202  dMISS:     445755  itACCESS:          0  itHIT:          0  itMISS:          0  dtACCESS:          0  dtHIT:          0  dtMISS:          0
cpu0_L2C RFO          ACCESS:     170018  HIT:      83116  MISS:      86902  iACCESS:          0  iHIT:          0  iMISS:          0  dACCESS:     170018  dHIT:      83116  dMISS:      86902  itACCESS:          0  itHIT:          0  itMISS:          0  dtACCESS:          0  dtHIT:          0  dtMISS:          0
cpu0_L2C PREFETCH     ACCESS:    4372367  HIT:    2436099  MISS:    1936268  iACCESS:    2262252  iHIT:    1400680  iMISS:     861572  dACCESS:    2110115  dHIT:    1035419  dMISS:    1074696  itACCESS:          0  itHIT:          0  itMISS:          0  dtACCESS:          0  dtHIT:          0  dtMISS:          0
cpu0_L2C WRITE        ACCESS:     254129  HIT:     253273  MISS:        856  iACCESS:          0  iHIT:          0  iMISS:          0  dACCESS:     254129  dHIT:     253273  dMISS:        856  itACCESS:          0  itHIT:          0  itMISS:          0  dtACCESS:          0  dtHIT:          0  dtMISS:          0
cpu0_L2C TRANSLATION  ACCESS:     221393  HIT:      33368  MISS:     188025  iACCESS:          0  iHIT:          0  iMISS:          0  dACCESS:          0  dHIT:          0  dMISS:          0  itACCESS:      67310  itHIT:      11386  itMISS:      55924  dtACCESS:     154083  dtHIT:      21982  dtMISS:     132101
cpu0_L2C PREFETCH  REQUESTED:    1216401  ISSUED:    1216401  CROSSED:          0  USEFUL:     288765  USELESS:     228314
cpu0_L2C AVERAGE iMISS LATENCY: 28.5734 cycles
cpu0_L2C AVERAGE dMISS LATENCY: 51.6201 cycles
cpu0_L2C AVERAGE itMISS LATENCY: 2.76996 cycles
cpu0_L2C AVERAGE dtMISS LATENCY: 6.57477 cycles
cpu0_L2C PAGE CROSSINGS (TLB HIT):         0 
cpu0_L2C PAGE CROSSINGS (TLB MISS):         0 
cpu0_L2C AVERAGE MISS LATENCY: 89.5383 cycles
LLC TOTAL       ACCESS:    2920436  HIT:    1636938  MISS:    1283498  iACCESS:    1050177  iHIT:     626762  iMISS:     423415  dACCESS:    1682234  dHIT:     952716  dMISS:     729518  itACCESS:      55924  itHIT:      15710  itMISS:      40214  dtACCESS:     132101  dtHIT:      41750  dtMISS:      90351
LLC LOAD         ACCESS:     684119  HIT:     396682  MISS:     287437  iACCESS:     239294  iHIT:     144163  iMISS:      95131  dACCESS:     444825  dHIT:     252519  dMISS:     192306  itACCESS:          0  itHIT:          0  itMISS:          0  dtACCESS:          0  dtHIT:          0  dtMISS:          0
LLC RFO          ACCESS:      86895  HIT:      35169  MISS:      51726  iACCESS:          0  iHIT:          0  iMISS:          0  dACCESS:      86895  dHIT:      35169  dMISS:      51726  itACCESS:          0  itHIT:          0  itMISS:          0  dtACCESS:          0  dtHIT:          0  dtMISS:          0
LLC PREFETCH     ACCESS:    1832005  HIT:    1024557  MISS:     807448  iACCESS:     810883  iHIT:     482599  iMISS:     328284  dACCESS:    1021122  dHIT:     541958  dMISS:     479164  itACCESS:          0  itHIT:          0  itMISS:          0  dtACCESS:          0  dtHIT:          0  dtMISS:          0
LLC WRITE        ACCESS:     129392  HIT:     123070  MISS:       6322  iACCESS:          0  iHIT:          0  iMISS:          0  dACCESS:     129392  dHIT:     123070  dMISS:       6322  itACCESS:          0  itHIT:          0  itMISS:          0  dtACCESS:          0  dtHIT:          0  dtMISS:          0
LLC TRANSLATION  ACCESS:     188025  HIT:      57460  MISS:     130565  iACCESS:          0  iHIT:          0  iMISS:          0  dACCESS:          0  dHIT:          0  dMISS:          0  itACCESS:      55924  itHIT:      15710  itMISS:      40214  dtACCESS:     132101  dtHIT:      41750  dtMISS:      90351
LLC PREFETCH  REQUESTED:          0  ISSUED:          0  CROSSED:          0  USEFUL:          0  USELESS:          0
LLC AVERAGE iMISS LATENCY: 48.5766 cycles
LLC AVERAGE dMISS LATENCY: 93.303 cycles
LLC AVERAGE itMISS LATENCY: 5.39806 cycles
LLC AVERAGE dtMISS LATENCY: 12.8284 cycles
LLC PAGE CROSSINGS (TLB HIT):         0 
LLC PAGE CROSSINGS (TLB MISS):         0 
LLC AVERAGE MISS LATENCY: 160.106 cycles

PageTableWalker TOTAL       ACCESS:     107024  
PageTableWalker AVERAGE LATENCY: 5.31769 cycles
PageTableWalker TOTAL LATENCY: 569120 cycles

DRAM Statistics
Channel 0
 RQ ROW_BUFFER_HIT:     341265
  ROW_BUFFER_MISS:     935092
 AVG DBUS CONGESTED CYCLE:    3.62279
 WQ ROW_BUFFER_HIT:      26880
  ROW_BUFFER_MISS:      21586  FULL:          0

