last_page:0x200000000000000
VMEM_RES_CAP:0x100000
PAGE_SIZE:4096
LOG2_PAGE_SIZE:12
LOG2_PAGE_TABLE_SIZE:9
page_table_levels:5
WARNING: physical memory size is smaller than virtual memory size
FDiP enabled with aggresivity 16

*** ChampSim Multicore Out-of-Order Simulator ***

Warmup Instructions: 50000000
Simulation Instructions: 100000000
Number of CPUs: 1
Small page size: 4096
Large page size: 2097152

CPU 0 Bimodal branch predictor
Basic BTB sets: 1024 ways: 8 indirect buffer size: 4096 RAS size: 64
Instruction page size distrubution: 0
Loading instruction page size distribution from /home/bsc/bsc018186/scratch/itp_asplos25_AE/dump/srv727_ap.pdst
Data page size distrubution: 0
Loading data page size distribution from /home/bsc/bsc018186/scratch/itp_asplos25_AE/dump/srv727_ap.pdst
cpu0_L2C IP-based stride prefetcher
cpu0_L1D next line prefetcher
cpu0_L1I next line prefetcher
Off-chip DRAM Size: 4 GiB Channels: 1 Width: 64-bit Data Rate: 3200 MT/s
Heartbeat CPU 0 instructions: 10000002 cycles: 2500191 heartbeat IPC: 3.9997 cumulative IPC: 3.9997 (Simulation time: 0 hr 0 min 39 sec) 
Heartbeat CPU 0 instructions: 20000001 cycles: 5000310 heartbeat IPC: 3.99981 cumulative IPC: 3.99976 (Simulation time: 0 hr 1 min 20 sec) 
Heartbeat CPU 0 instructions: 30000001 cycles: 7500333 heartbeat IPC: 3.99997 cumulative IPC: 3.99983 (Simulation time: 0 hr 2 min 1 sec) 
Heartbeat CPU 0 instructions: 40000000 cycles: 10001052 heartbeat IPC: 3.99885 cumulative IPC: 3.99958 (Simulation time: 0 hr 2 min 43 sec) 
Heartbeat CPU 0 instructions: 50000000 cycles: 12501164 heartbeat IPC: 3.99983 cumulative IPC: 3.99963 (Simulation time: 0 hr 3 min 25 sec) 
Warmup finished CPU 0 instructions: 50000000 cycles: 12501165 cumulative IPC: 3.99963 (Simulation time: 0 hr 3 min 25 sec) 

Warmup complete CPU 0 instructions: 50000000 cycles: 12501165 (Simulation time: 0 hr 3 min 25 sec) 

Heartbeat CPU 0 instructions: 60000001 cycles: 30993030 heartbeat IPC: 0.540779 cumulative IPC: 0.540779 (Simulation time: 0 hr 4 min 36 sec) 
Heartbeat CPU 0 instructions: 70000000 cycles: 49158236 heartbeat IPC: 0.550503 cumulative IPC: 0.545598 (Simulation time: 0 hr 5 min 48 sec) 
Heartbeat CPU 0 instructions: 80000003 cycles: 67785288 heartbeat IPC: 0.536854 cumulative IPC: 0.542652 (Simulation time: 0 hr 7 min 1 sec) 
Heartbeat CPU 0 instructions: 90000000 cycles: 85418158 heartbeat IPC: 0.567123 cumulative IPC: 0.548569 (Simulation time: 0 hr 8 min 13 sec) 
Heartbeat CPU 0 instructions: 100000001 cycles: 104382826 heartbeat IPC: 0.527297 cumulative IPC: 0.544179 (Simulation time: 0 hr 9 min 27 sec) 
*** Reached end of trace: /gpfs/projects/bsc18/MN4/bsc18/romol/ChampSim/traces/qualcomm_srv/srv727_ap.champsimtrace.xz
Heartbeat CPU 0 instructions: 110000001 cycles: 121932174 heartbeat IPC: 0.569822 cumulative IPC: 0.548291 (Simulation time: 0 hr 10 min 39 sec) 
Heartbeat CPU 0 instructions: 120000003 cycles: 139562164 heartbeat IPC: 0.567216 cumulative IPC: 0.550917 (Simulation time: 0 hr 11 min 51 sec) 
Heartbeat CPU 0 instructions: 130000001 cycles: 158062228 heartbeat IPC: 0.540539 cumulative IPC: 0.549598 (Simulation time: 0 hr 13 min 4 sec) 
Heartbeat CPU 0 instructions: 140000004 cycles: 176126625 heartbeat IPC: 0.553576 cumulative IPC: 0.550037 (Simulation time: 0 hr 14 min 17 sec) 
Heartbeat CPU 0 instructions: 150000003 cycles: 194355361 heartbeat IPC: 0.548585 cumulative IPC: 0.549892 (Simulation time: 0 hr 15 min 31 sec) 
Simulation finished CPU 0 instructions: 100000003 cycles: 181854197 cumulative IPC: 0.549892 (Simulation time: 0 hr 15 min 31 sec) 

Simulation complete CPU 0 instructions: 100000003 cycles: 181854197 (Simulation time: 0 hr 15 min 31 sec) 


ChampSim completed all CPUs

Saving instructions large page distribution to /home/bsc/bsc018186/scratch/itp_asplos25_AE/dump/srv727_ap.pdst...
Saving data large page distribution to /home/bsc/bsc018186/scratch/itp_asplos25_AE/dump/srv727_ap.pdst...
=== Simulation ===
CPU 0 runs /gpfs/projects/bsc18/MN4/bsc18/romol/ChampSim/traces/qualcomm_srv/srv727_ap.champsimtrace.xz

Region of Interest Statistics

CPU 0 cumulative IPC: 0.549892 instructions: 100000003 cycles: 181854197
CPU 0 Branch Prediction Accuracy: 80.2071% MPKI: 35.6611 Average ROB Occupancy at Mispredict: 10.3735
Branch type MPKI
BRANCH_DIRECT_JUMP: 1.31546
BRANCH_INDIRECT: 17.8474
BRANCH_CONDITIONAL: 11.594
BRANCH_DIRECT_CALL: 2.46883
BRANCH_INDIRECT_CALL: 0.6923
BRANCH_RETURN: 1.74308

Instructions large pages: 0
Instructions small pages: 5810
Large page distribution for instructions: 0%

Data large pages: 0
Data small pages: 4708
Large page distribution for data: 0%

cpu0_L1I TOTAL       ACCESS:   35735673  HIT:   27345043  MISS:    8390630  iACCESS:   35735673  iHIT:   27345043  iMISS:    8390630  dACCESS:          0  dHIT:          0  dMISS:          0  itACCESS:          0  itHIT:          0  itMISS:          0  dtACCESS:          0  dtHIT:          0  dtMISS:          0
cpu0_L1I LOAD         ACCESS:   10291745  HIT:    7987357  MISS:    2304388  iACCESS:   10291745  iHIT:    7987357  iMISS:    2304388  dACCESS:          0  dHIT:          0  dMISS:          0  itACCESS:          0  itHIT:          0  itMISS:          0  dtACCESS:          0  dtHIT:          0  dtMISS:          0
cpu0_L1I RFO          ACCESS:          0  HIT:          0  MISS:          0  iACCESS:          0  iHIT:          0  iMISS:          0  dACCESS:          0  dHIT:          0  dMISS:          0  itACCESS:          0  itHIT:          0  itMISS:          0  dtACCESS:          0  dtHIT:          0  dtMISS:          0
cpu0_L1I PREFETCH     ACCESS:   25443928  HIT:   19357686  MISS:    6086242  iACCESS:   25443928  iHIT:   19357686  iMISS:    6086242  dACCESS:          0  dHIT:          0  dMISS:          0  itACCESS:          0  itHIT:          0  itMISS:          0  dtACCESS:          0  dtHIT:          0  dtMISS:          0
cpu0_L1I WRITE        ACCESS:          0  HIT:          0  MISS:          0  iACCESS:          0  iHIT:          0  iMISS:          0  dACCESS:          0  dHIT:          0  dMISS:          0  itACCESS:          0  itHIT:          0  itMISS:          0  dtACCESS:          0  dtHIT:          0  dtMISS:          0
cpu0_L1I TRANSLATION  ACCESS:          0  HIT:          0  MISS:          0  iACCESS:          0  iHIT:          0  iMISS:          0  dACCESS:          0  dHIT:          0  dMISS:          0  itACCESS:          0  itHIT:          0  itMISS:          0  dtACCESS:          0  dtHIT:          0  dtMISS:          0
cpu0_L1I PREFETCH  REQUESTED:   27618419  ISSUED:   27616317  CROSSED:          0  USEFUL:    1981734  USELESS:     655272
cpu0_L1I AVERAGE iMISS LATENCY: 18.7314 cycles
cpu0_L1I AVERAGE dMISS LATENCY: 0 cycles
cpu0_L1I AVERAGE itMISS LATENCY: 0 cycles
cpu0_L1I AVERAGE dtMISS LATENCY: 0 cycles
cpu0_L1I PAGE CROSSINGS (TLB HIT):         0 
cpu0_L1I PAGE CROSSINGS (TLB MISS):         0 
cpu0_L1I AVERAGE MISS LATENCY: 18.7314 cycles
cpu0_ITLB TOTAL       ACCESS:   29933110  HIT:   27984314  MISS:    1948796  iACCESS:   29933110  iHIT:   27984314  iMISS:    1948796  dACCESS:          0  dHIT:          0  dMISS:          0  itACCESS:          0  itHIT:          0  itMISS:          0  dtACCESS:          0  dtHIT:          0  dtMISS:          0
cpu0_ITLB LOAD         ACCESS:   29933110  HIT:   27984314  MISS:    1948796  iACCESS:   29933110  iHIT:   27984314  iMISS:    1948796  dACCESS:          0  dHIT:          0  dMISS:          0  itACCESS:          0  itHIT:          0  itMISS:          0  dtACCESS:          0  dtHIT:          0  dtMISS:          0
cpu0_ITLB RFO          ACCESS:          0  HIT:          0  MISS:          0  iACCESS:          0  iHIT:          0  iMISS:          0  dACCESS:          0  dHIT:          0  dMISS:          0  itACCESS:          0  itHIT:          0  itMISS:          0  dtACCESS:          0  dtHIT:          0  dtMISS:          0
cpu0_ITLB PREFETCH     ACCESS:          0  HIT:          0  MISS:          0  iACCESS:          0  iHIT:          0  iMISS:          0  dACCESS:          0  dHIT:          0  dMISS:          0  itACCESS:          0  itHIT:          0  itMISS:          0  dtACCESS:          0  dtHIT:          0  dtMISS:          0
cpu0_ITLB WRITE        ACCESS:          0  HIT:          0  MISS:          0  iACCESS:          0  iHIT:          0  iMISS:          0  dACCESS:          0  dHIT:          0  dMISS:          0  itACCESS:          0  itHIT:          0  itMISS:          0  dtACCESS:          0  dtHIT:          0  dtMISS:          0
cpu0_ITLB TRANSLATION  ACCESS:          0  HIT:          0  MISS:          0  iACCESS:          0  iHIT:          0  iMISS:          0  dACCESS:          0  dHIT:          0  dMISS:          0  itACCESS:          0  itHIT:          0  itMISS:          0  dtACCESS:          0  dtHIT:          0  dtMISS:          0
cpu0_ITLB PREFETCH  REQUESTED:          0  ISSUED:          0  CROSSED:          0  USEFUL:     332117  USELESS:      61379
cpu0_ITLB AVERAGE iMISS LATENCY: 3.99665 cycles
cpu0_ITLB AVERAGE dMISS LATENCY: 0 cycles
cpu0_ITLB AVERAGE itMISS LATENCY: 0 cycles
cpu0_ITLB AVERAGE dtMISS LATENCY: 0 cycles
cpu0_ITLB PAGE CROSSINGS (TLB HIT):         0 
cpu0_ITLB PAGE CROSSINGS (TLB MISS):         0 
cpu0_ITLB AVERAGE MISS LATENCY: 3.99665 cycles
cpu0_DTLB TOTAL       ACCESS:   28018162  HIT:   26230341  MISS:    1787821  iACCESS:          0  iHIT:          0  iMISS:          0  dACCESS:   28018162  dHIT:   26230341  dMISS:    1787821  itACCESS:          0  itHIT:          0  itMISS:          0  dtACCESS:          0  dtHIT:          0  dtMISS:          0
cpu0_DTLB LOAD         ACCESS:   28018162  HIT:   26230341  MISS:    1787821  iACCESS:          0  iHIT:          0  iMISS:          0  dACCESS:   28018162  dHIT:   26230341  dMISS:    1787821  itACCESS:          0  itHIT:          0  itMISS:          0  dtACCESS:          0  dtHIT:          0  dtMISS:          0
cpu0_DTLB RFO          ACCESS:          0  HIT:          0  MISS:          0  iACCESS:          0  iHIT:          0  iMISS:          0  dACCESS:          0  dHIT:          0  dMISS:          0  itACCESS:          0  itHIT:          0  itMISS:          0  dtACCESS:          0  dtHIT:          0  dtMISS:          0
cpu0_DTLB PREFETCH     ACCESS:          0  HIT:          0  MISS:          0  iACCESS:          0  iHIT:          0  iMISS:          0  dACCESS:          0  dHIT:          0  dMISS:          0  itACCESS:          0  itHIT:          0  itMISS:          0  dtACCESS:          0  dtHIT:          0  dtMISS:          0
cpu0_DTLB WRITE        ACCESS:          0  HIT:          0  MISS:          0  iACCESS:          0  iHIT:          0  iMISS:          0  dACCESS:          0  dHIT:          0  dMISS:          0  itACCESS:          0  itHIT:          0  itMISS:          0  dtACCESS:          0  dtHIT:          0  dtMISS:          0
cpu0_DTLB TRANSLATION  ACCESS:          0  HIT:          0  MISS:          0  iACCESS:          0  iHIT:          0  iMISS:          0  dACCESS:          0  dHIT:          0  dMISS:          0  itACCESS:          0  itHIT:          0  itMISS:          0  dtACCESS:          0  dtHIT:          0  dtMISS:          0
cpu0_DTLB PREFETCH  REQUESTED:          0  ISSUED:          0  CROSSED:          0  USEFUL:          0  USELESS:          0
cpu0_DTLB AVERAGE iMISS LATENCY: 0 cycles
cpu0_DTLB AVERAGE dMISS LATENCY: 12.3904 cycles
cpu0_DTLB AVERAGE itMISS LATENCY: 0 cycles
cpu0_DTLB AVERAGE dtMISS LATENCY: 0 cycles
cpu0_DTLB PAGE CROSSINGS (TLB HIT):         0 
cpu0_DTLB PAGE CROSSINGS (TLB MISS):         0 
cpu0_DTLB AVERAGE MISS LATENCY: 12.3904 cycles
cpu0_STLB TOTAL       ACCESS:    1541189  HIT:    1305299  MISS:     235890  iACCESS:     393520  iHIT:     304653  iMISS:      88867  dACCESS:    1147669  dHIT:    1000646  dMISS:     147023  itACCESS:          0  itHIT:          0  itMISS:          0  dtACCESS:          0  dtHIT:          0  dtMISS:          0
cpu0_STLB LOAD         ACCESS:    1541189  HIT:    1305299  MISS:     235890  iACCESS:     393520  iHIT:     304653  iMISS:      88867  dACCESS:    1147669  dHIT:    1000646  dMISS:     147023  itACCESS:          0  itHIT:          0  itMISS:          0  dtACCESS:          0  dtHIT:          0  dtMISS:          0
cpu0_STLB RFO          ACCESS:          0  HIT:          0  MISS:          0  iACCESS:          0  iHIT:          0  iMISS:          0  dACCESS:          0  dHIT:          0  dMISS:          0  itACCESS:          0  itHIT:          0  itMISS:          0  dtACCESS:          0  dtHIT:          0  dtMISS:          0
cpu0_STLB PREFETCH     ACCESS:          0  HIT:          0  MISS:          0  iACCESS:          0  iHIT:          0  iMISS:          0  dACCESS:          0  dHIT:          0  dMISS:          0  itACCESS:          0  itHIT:          0  itMISS:          0  dtACCESS:          0  dtHIT:          0  dtMISS:          0
cpu0_STLB WRITE        ACCESS:          0  HIT:          0  MISS:          0  iACCESS:          0  iHIT:          0  iMISS:          0  dACCESS:          0  dHIT:          0  dMISS:          0  itACCESS:          0  itHIT:          0  itMISS:          0  dtACCESS:          0  dtHIT:          0  dtMISS:          0
cpu0_STLB TRANSLATION  ACCESS:          0  HIT:          0  MISS:          0  iACCESS:          0  iHIT:          0  iMISS:          0  dACCESS:          0  dHIT:          0  dMISS:          0  itACCESS:          0  itHIT:          0  itMISS:          0  dtACCESS:          0  dtHIT:          0  dtMISS:          0
cpu0_STLB PREFETCH  REQUESTED:          0  ISSUED:          0  CROSSED:          0  USEFUL:          0  USELESS:          0
cpu0_STLB AVERAGE iMISS LATENCY: 19.7067 cycles
cpu0_STLB AVERAGE dMISS LATENCY: 54.997 cycles
cpu0_STLB AVERAGE itMISS LATENCY: 0 cycles
cpu0_STLB AVERAGE dtMISS LATENCY: 0 cycles
cpu0_STLB PAGE CROSSINGS (TLB HIT):         0 
cpu0_STLB PAGE CROSSINGS (TLB MISS):         0 
cpu0_STLB AVERAGE MISS LATENCY: 74.7036 cycles
cpu0_L1D TOTAL       ACCESS:   42525728  HIT:   38490275  MISS:    4035453  iACCESS:          0  iHIT:          0  iMISS:          0  dACCESS:   42231338  dHIT:   38462716  dMISS:    3768622  itACCESS:      95330  itHIT:      15263  itMISS:      80067  dtACCESS:     199060  dtHIT:      12296  dtMISS:     186764
cpu0_L1D LOAD         ACCESS:   19372913  HIT:   17667933  MISS:    1704980  iACCESS:          0  iHIT:          0  iMISS:          0  dACCESS:   19372913  dHIT:   17667933  dMISS:    1704980  itACCESS:          0  itHIT:          0  itMISS:          0  dtACCESS:          0  dtHIT:          0  dtMISS:          0
cpu0_L1D RFO          ACCESS:          0  HIT:          0  MISS:          0  iACCESS:          0  iHIT:          0  iMISS:          0  dACCESS:          0  dHIT:          0  dMISS:          0  itACCESS:          0  itHIT:          0  itMISS:          0  dtACCESS:          0  dtHIT:          0  dtMISS:          0
cpu0_L1D PREFETCH     ACCESS:   12697916  HIT:   11114033  MISS:    1583883  iACCESS:          0  iHIT:          0  iMISS:          0  dACCESS:   12697916  dHIT:   11114033  dMISS:    1583883  itACCESS:          0  itHIT:          0  itMISS:          0  dtACCESS:          0  dtHIT:          0  dtMISS:          0
cpu0_L1D WRITE        ACCESS:   10160509  HIT:    9680750  MISS:     479759  iACCESS:          0  iHIT:          0  iMISS:          0  dACCESS:   10160509  dHIT:    9680750  dMISS:     479759  itACCESS:          0  itHIT:          0  itMISS:          0  dtACCESS:          0  dtHIT:          0  dtMISS:          0
cpu0_L1D TRANSLATION  ACCESS:     294390  HIT:      27559  MISS:     266831  iACCESS:          0  iHIT:          0  iMISS:          0  dACCESS:          0  dHIT:          0  dMISS:          0  itACCESS:      95330  itHIT:      15263  itMISS:      80067  dtACCESS:     199060  dtHIT:      12296  dtMISS:     186764
cpu0_L1D PREFETCH  REQUESTED:   19372913  ISSUED:   17301512  CROSSED:          0  USEFUL:     314190  USELESS:     710667
cpu0_L1D AVERAGE iMISS LATENCY: 0 cycles
cpu0_L1D AVERAGE dMISS LATENCY: 39.5062 cycles
cpu0_L1D AVERAGE itMISS LATENCY: 0.961579 cycles
cpu0_L1D AVERAGE dtMISS LATENCY: 2.73196 cycles
cpu0_L1D PAGE CROSSINGS (TLB HIT):         0 
cpu0_L1D PAGE CROSSINGS (TLB MISS):         0 
cpu0_L1D AVERAGE MISS LATENCY: 43.1997 cycles
cpu0_L2C TOTAL       ACCESS:    7290855  HIT:    1643487  MISS:    5647368  iACCESS:    3363387  iHIT:     825434  iMISS:    2537953  dACCESS:    3663767  dHIT:     655330  dMISS:    3008437  itACCESS:      80067  itHIT:      56857  itMISS:      23210  dtACCESS:     183634  dtHIT:     105866  dtMISS:      77768
cpu0_L2C LOAD         ACCESS:    1721169  HIT:     257028  MISS:    1464141  iACCESS:     764022  iHIT:     132572  iMISS:     631450  dACCESS:     957147  dHIT:     124456  dMISS:     832691  itACCESS:          0  itHIT:          0  itMISS:          0  dtACCESS:          0  dtHIT:          0  dtMISS:          0
cpu0_L2C RFO          ACCESS:     167471  HIT:      41785  MISS:     125686  iACCESS:          0  iHIT:          0  iMISS:          0  dACCESS:     167471  dHIT:      41785  dMISS:     125686  itACCESS:          0  itHIT:          0  itMISS:          0  dtACCESS:          0  dtHIT:          0  dtMISS:          0
cpu0_L2C PREFETCH     ACCESS:    4859957  HIT:    1061139  MISS:    3798818  iACCESS:    2599365  iHIT:     692862  iMISS:    1906503  dACCESS:    2260592  dHIT:     368277  dMISS:    1892315  itACCESS:          0  itHIT:          0  itMISS:          0  dtACCESS:          0  dtHIT:          0  dtMISS:          0
cpu0_L2C WRITE        ACCESS:     278557  HIT:     120812  MISS:     157745  iACCESS:          0  iHIT:          0  iMISS:          0  dACCESS:     278557  dHIT:     120812  dMISS:     157745  itACCESS:          0  itHIT:          0  itMISS:          0  dtACCESS:          0  dtHIT:          0  dtMISS:          0
cpu0_L2C TRANSLATION  ACCESS:     263701  HIT:     162723  MISS:     100978  iACCESS:          0  iHIT:          0  iMISS:          0  dACCESS:          0  dHIT:          0  dMISS:          0  itACCESS:      80067  itHIT:      56857  itMISS:      23210  dtACCESS:     183634  dtHIT:     105866  dtMISS:      77768
cpu0_L2C PREFETCH  REQUESTED:    1494067  ISSUED:    1494023  CROSSED:          0  USEFUL:     407847  USELESS:     436008
cpu0_L2C AVERAGE iMISS LATENCY: 22.5989 cycles
cpu0_L2C AVERAGE dMISS LATENCY: 35.7771 cycles
cpu0_L2C AVERAGE itMISS LATENCY: 0.555012 cycles
cpu0_L2C AVERAGE dtMISS LATENCY: 1.6445 cycles
cpu0_L2C PAGE CROSSINGS (TLB HIT):         0 
cpu0_L2C PAGE CROSSINGS (TLB MISS):         0 
cpu0_L2C AVERAGE MISS LATENCY: 60.5755 cycles
LLC TOTAL       ACCESS:    5472295  HIT:    3943740  MISS:    1528555  iACCESS:    2462318  iHIT:    1914205  iMISS:     548113  dACCESS:    2908999  dHIT:    1986153  dMISS:     922846  itACCESS:      23210  itHIT:       7704  itMISS:      15506  dtACCESS:      77768  dtHIT:      35678  dtMISS:      42090
LLC LOAD         ACCESS:    1458360  HIT:    1124054  MISS:     334306  iACCESS:     629909  iHIT:     520268  iMISS:     109641  dACCESS:     828451  dHIT:     603786  dMISS:     224665  itACCESS:          0  itHIT:          0  itMISS:          0  dtACCESS:          0  dtHIT:          0  dtMISS:          0
LLC RFO          ACCESS:     125683  HIT:      69927  MISS:      55756  iACCESS:          0  iHIT:          0  iMISS:          0  dACCESS:     125683  dHIT:      69927  dMISS:      55756  itACCESS:          0  itHIT:          0  itMISS:          0  dtACCESS:          0  dtHIT:          0  dtMISS:          0
LLC PREFETCH     ACCESS:    3627989  HIT:    2557070  MISS:    1070919  iACCESS:    1832409  iHIT:    1393937  iMISS:     438472  dACCESS:    1795580  dHIT:    1163133  dMISS:     632447  itACCESS:          0  itHIT:          0  itMISS:          0  dtACCESS:          0  dtHIT:          0  dtMISS:          0
LLC WRITE        ACCESS:     159285  HIT:     149307  MISS:       9978  iACCESS:          0  iHIT:          0  iMISS:          0  dACCESS:     159285  dHIT:     149307  dMISS:       9978  itACCESS:          0  itHIT:          0  itMISS:          0  dtACCESS:          0  dtHIT:          0  dtMISS:          0
LLC TRANSLATION  ACCESS:     100978  HIT:      43382  MISS:      57596  iACCESS:          0  iHIT:          0  iMISS:          0  dACCESS:          0  dHIT:          0  dMISS:          0  itACCESS:      23210  itHIT:       7704  itMISS:      15506  dtACCESS:      77768  dtHIT:      35678  dtMISS:      42090
LLC PREFETCH  REQUESTED:          0  ISSUED:          0  CROSSED:          0  USEFUL:          0  USELESS:          0
LLC AVERAGE iMISS LATENCY: 52.2992 cycles
LLC AVERAGE dMISS LATENCY: 98.1746 cycles
LLC AVERAGE itMISS LATENCY: 1.75258 cycles
LLC AVERAGE dtMISS LATENCY: 5.08283 cycles
LLC PAGE CROSSINGS (TLB HIT):         0 
LLC PAGE CROSSINGS (TLB MISS):         0 
LLC AVERAGE MISS LATENCY: 157.31 cycles

PageTableWalker TOTAL       ACCESS:     116332  
PageTableWalker AVERAGE LATENCY: 4.18859 cycles
PageTableWalker TOTAL LATENCY: 487266 cycles

DRAM Statistics
Channel 0
 RQ ROW_BUFFER_HIT:     452331
  ROW_BUFFER_MISS:    1058353
 AVG DBUS CONGESTED CYCLE:    3.63106
 WQ ROW_BUFFER_HIT:      30690
  ROW_BUFFER_MISS:      25075  FULL:          0

