last_page:0x200000000000000
VMEM_RES_CAP:0x100000
PAGE_SIZE:4096
LOG2_PAGE_SIZE:12
LOG2_PAGE_TABLE_SIZE:9
page_table_levels:5
WARNING: physical memory size is smaller than virtual memory size
FDiP enabled with aggresivity 16

*** ChampSim Multicore Out-of-Order Simulator ***

Warmup Instructions: 50000000
Simulation Instructions: 100000000
Number of CPUs: 1
Small page size: 4096
Large page size: 2097152

CPU 0 Bimodal branch predictor
Basic BTB sets: 1024 ways: 8 indirect buffer size: 4096 RAS size: 64
Instruction page size distrubution: 0
Loading instruction page size distribution from /home/bsc/bsc018186/scratch/itp_asplos25_AE/dump/srv704_ap.pdst
Data page size distrubution: 0
Loading data page size distribution from /home/bsc/bsc018186/scratch/itp_asplos25_AE/dump/srv704_ap.pdst
cpu0_L2C IP-based stride prefetcher
cpu0_L2C is using PTP replacement policy:
	TLB_STRESS_THRESHOLD:0
	PTE_EVICTION_RATIO:0
cpu0_L1D next line prefetcher
cpu0_STLB using iTP with max lru@8
cpu0_STLB using iTP with instr@0 and data@2
Init sat counter with 3 bits (max:50).
cpu0_L1I next line prefetcher
Off-chip DRAM Size: 4 GiB Channels: 1 Width: 64-bit Data Rate: 3200 MT/s
Heartbeat CPU 0 instructions: 10000001 cycles: 2500194 heartbeat IPC: 3.9997 cumulative IPC: 3.9997 (Simulation time: 0 hr 0 min 38 sec) 
Heartbeat CPU 0 instructions: 20000001 cycles: 5000217 heartbeat IPC: 3.99997 cumulative IPC: 3.99983 (Simulation time: 0 hr 1 min 17 sec) 
Heartbeat CPU 0 instructions: 30000001 cycles: 7500218 heartbeat IPC: 4 cumulative IPC: 3.99989 (Simulation time: 0 hr 1 min 57 sec) 
Heartbeat CPU 0 instructions: 40000003 cycles: 10000221 heartbeat IPC: 4 cumulative IPC: 3.99992 (Simulation time: 0 hr 2 min 37 sec) 
Heartbeat CPU 0 instructions: 50000002 cycles: 12500300 heartbeat IPC: 3.99988 cumulative IPC: 3.99991 (Simulation time: 0 hr 3 min 17 sec) 
Warmup finished CPU 0 instructions: 50000002 cycles: 12500301 cumulative IPC: 3.99991 (Simulation time: 0 hr 3 min 17 sec) 

Warmup complete CPU 0 instructions: 50000002 cycles: 12500301 (Simulation time: 0 hr 3 min 17 sec) 

Heartbeat CPU 0 instructions: 60000001 cycles: 26850409 heartbeat IPC: 0.696859 cumulative IPC: 0.696859 (Simulation time: 0 hr 4 min 19 sec) 
Heartbeat CPU 0 instructions: 70000004 cycles: 33004739 heartbeat IPC: 1.62488 cumulative IPC: 0.975399 (Simulation time: 0 hr 5 min 11 sec) 
Heartbeat CPU 0 instructions: 80000002 cycles: 47450022 heartbeat IPC: 0.692268 cumulative IPC: 0.858376 (Simulation time: 0 hr 6 min 15 sec) 
Heartbeat CPU 0 instructions: 90000003 cycles: 62984005 heartbeat IPC: 0.64375 cumulative IPC: 0.792335 (Simulation time: 0 hr 7 min 20 sec) 
Heartbeat CPU 0 instructions: 100000001 cycles: 78019162 heartbeat IPC: 0.665108 cumulative IPC: 0.76314 (Simulation time: 0 hr 8 min 25 sec) 
*** Reached end of trace: /gpfs/projects/bsc18/MN4/bsc18/romol/ChampSim/traces/qualcomm_srv/srv704_ap.champsimtrace.xz
Heartbeat CPU 0 instructions: 110000002 cycles: 93967388 heartbeat IPC: 0.62703 cumulative IPC: 0.736494 (Simulation time: 0 hr 9 min 36 sec) 
Heartbeat CPU 0 instructions: 120000004 cycles: 109880804 heartbeat IPC: 0.628401 cumulative IPC: 0.71883 (Simulation time: 0 hr 10 min 47 sec) 
Heartbeat CPU 0 instructions: 130000002 cycles: 125259475 heartbeat IPC: 0.650252 cumulative IPC: 0.709477 (Simulation time: 0 hr 11 min 58 sec) 
Heartbeat CPU 0 instructions: 140000001 cycles: 140282301 heartbeat IPC: 0.665654 cumulative IPC: 0.704325 (Simulation time: 0 hr 13 min 4 sec) 
Heartbeat CPU 0 instructions: 150000003 cycles: 155899708 heartbeat IPC: 0.640312 cumulative IPC: 0.697353 (Simulation time: 0 hr 14 min 16 sec) 
Simulation finished CPU 0 instructions: 100000001 cycles: 143399408 cumulative IPC: 0.697353 (Simulation time: 0 hr 14 min 16 sec) 

Simulation complete CPU 0 instructions: 100000001 cycles: 143399408 (Simulation time: 0 hr 14 min 16 sec) 


ChampSim completed all CPUs

Saving instructions large page distribution to /home/bsc/bsc018186/scratch/itp_asplos25_AE/dump/srv704_ap.pdst...
Saving data large page distribution to /home/bsc/bsc018186/scratch/itp_asplos25_AE/dump/srv704_ap.pdst...
=== Simulation ===
CPU 0 runs /gpfs/projects/bsc18/MN4/bsc18/romol/ChampSim/traces/qualcomm_srv/srv704_ap.champsimtrace.xz

Region of Interest Statistics

CPU 0 cumulative IPC: 0.697353 instructions: 100000001 cycles: 143399408
CPU 0 Branch Prediction Accuracy: 85.2403% MPKI: 28.2805 Average ROB Occupancy at Mispredict: 13.7726
Branch type MPKI
BRANCH_DIRECT_JUMP: 0.94631
BRANCH_INDIRECT: 14.5697
BRANCH_CONDITIONAL: 9.29308
BRANCH_DIRECT_CALL: 1.7075
BRANCH_INDIRECT_CALL: 0.53942
BRANCH_RETURN: 1.22449

Instructions large pages: 0
Instructions small pages: 10107
Large page distribution for instructions: 0%

Data large pages: 0
Data small pages: 9080
Large page distribution for data: 0%

cpu0_L1I TOTAL       ACCESS:   34343485  HIT:   27348881  MISS:    6994604  iACCESS:   34343485  iHIT:   27348881  iMISS:    6994604  dACCESS:          0  dHIT:          0  dMISS:          0  itACCESS:          0  itHIT:          0  itMISS:          0  dtACCESS:          0  dtHIT:          0  dtMISS:          0
cpu0_L1I LOAD         ACCESS:    9314224  HIT:    7351748  MISS:    1962476  iACCESS:    9314224  iHIT:    7351748  iMISS:    1962476  dACCESS:          0  dHIT:          0  dMISS:          0  itACCESS:          0  itHIT:          0  itMISS:          0  dtACCESS:          0  dtHIT:          0  dtMISS:          0
cpu0_L1I RFO          ACCESS:          0  HIT:          0  MISS:          0  iACCESS:          0  iHIT:          0  iMISS:          0  dACCESS:          0  dHIT:          0  dMISS:          0  itACCESS:          0  itHIT:          0  itMISS:          0  dtACCESS:          0  dtHIT:          0  dtMISS:          0
cpu0_L1I PREFETCH     ACCESS:   25029261  HIT:   19997133  MISS:    5032128  iACCESS:   25029261  iHIT:   19997133  iMISS:    5032128  dACCESS:          0  dHIT:          0  dMISS:          0  itACCESS:          0  itHIT:          0  itMISS:          0  dtACCESS:          0  dtHIT:          0  dtMISS:          0
cpu0_L1I WRITE        ACCESS:          0  HIT:          0  MISS:          0  iACCESS:          0  iHIT:          0  iMISS:          0  dACCESS:          0  dHIT:          0  dMISS:          0  itACCESS:          0  itHIT:          0  itMISS:          0  dtACCESS:          0  dtHIT:          0  dtMISS:          0
cpu0_L1I TRANSLATION  ACCESS:          0  HIT:          0  MISS:          0  iACCESS:          0  iHIT:          0  iMISS:          0  dACCESS:          0  dHIT:          0  dMISS:          0  itACCESS:          0  itHIT:          0  itMISS:          0  dtACCESS:          0  dtHIT:          0  dtMISS:          0
cpu0_L1I PREFETCH  REQUESTED:   27311859  ISSUED:   27311858  CROSSED:          0  USEFUL:    1724685  USELESS:     560974
cpu0_L1I AVERAGE iMISS LATENCY: 13.3443 cycles
cpu0_L1I AVERAGE dMISS LATENCY: 0 cycles
cpu0_L1I AVERAGE itMISS LATENCY: 0 cycles
cpu0_L1I AVERAGE dtMISS LATENCY: 0 cycles
cpu0_L1I PAGE CROSSINGS (TLB HIT):         0 
cpu0_L1I PAGE CROSSINGS (TLB MISS):         0 
cpu0_L1I AVERAGE MISS LATENCY: 13.3443 cycles
cpu0_ITLB TOTAL       ACCESS:   28747992  HIT:   27020342  MISS:    1727650  iACCESS:   28747992  iHIT:   27020342  iMISS:    1727650  dACCESS:          0  dHIT:          0  dMISS:          0  itACCESS:          0  itHIT:          0  itMISS:          0  dtACCESS:          0  dtHIT:          0  dtMISS:          0
cpu0_ITLB LOAD         ACCESS:   28747992  HIT:   27020342  MISS:    1727650  iACCESS:   28747992  iHIT:   27020342  iMISS:    1727650  dACCESS:          0  dHIT:          0  dMISS:          0  itACCESS:          0  itHIT:          0  itMISS:          0  dtACCESS:          0  dtHIT:          0  dtMISS:          0
cpu0_ITLB RFO          ACCESS:          0  HIT:          0  MISS:          0  iACCESS:          0  iHIT:          0  iMISS:          0  dACCESS:          0  dHIT:          0  dMISS:          0  itACCESS:          0  itHIT:          0  itMISS:          0  dtACCESS:          0  dtHIT:          0  dtMISS:          0
cpu0_ITLB PREFETCH     ACCESS:          0  HIT:          0  MISS:          0  iACCESS:          0  iHIT:          0  iMISS:          0  dACCESS:          0  dHIT:          0  dMISS:          0  itACCESS:          0  itHIT:          0  itMISS:          0  dtACCESS:          0  dtHIT:          0  dtMISS:          0
cpu0_ITLB WRITE        ACCESS:          0  HIT:          0  MISS:          0  iACCESS:          0  iHIT:          0  iMISS:          0  dACCESS:          0  dHIT:          0  dMISS:          0  itACCESS:          0  itHIT:          0  itMISS:          0  dtACCESS:          0  dtHIT:          0  dtMISS:          0
cpu0_ITLB TRANSLATION  ACCESS:          0  HIT:          0  MISS:          0  iACCESS:          0  iHIT:          0  iMISS:          0  dACCESS:          0  dHIT:          0  dMISS:          0  itACCESS:          0  itHIT:          0  itMISS:          0  dtACCESS:          0  dtHIT:          0  dtMISS:          0
cpu0_ITLB PREFETCH  REQUESTED:          0  ISSUED:          0  CROSSED:          0  USEFUL:     282263  USELESS:      57184
cpu0_ITLB AVERAGE iMISS LATENCY: 2.37142 cycles
cpu0_ITLB AVERAGE dMISS LATENCY: 0 cycles
cpu0_ITLB AVERAGE itMISS LATENCY: 0 cycles
cpu0_ITLB AVERAGE dtMISS LATENCY: 0 cycles
cpu0_ITLB PAGE CROSSINGS (TLB HIT):         0 
cpu0_ITLB PAGE CROSSINGS (TLB MISS):         0 
cpu0_ITLB AVERAGE MISS LATENCY: 2.37142 cycles
cpu0_DTLB TOTAL       ACCESS:   29465317  HIT:   25139216  MISS:    4326101  iACCESS:          0  iHIT:          0  iMISS:          0  dACCESS:   29465317  dHIT:   25139216  dMISS:    4326101  itACCESS:          0  itHIT:          0  itMISS:          0  dtACCESS:          0  dtHIT:          0  dtMISS:          0
cpu0_DTLB LOAD         ACCESS:   29465317  HIT:   25139216  MISS:    4326101  iACCESS:          0  iHIT:          0  iMISS:          0  dACCESS:   29465317  dHIT:   25139216  dMISS:    4326101  itACCESS:          0  itHIT:          0  itMISS:          0  dtACCESS:          0  dtHIT:          0  dtMISS:          0
cpu0_DTLB RFO          ACCESS:          0  HIT:          0  MISS:          0  iACCESS:          0  iHIT:          0  iMISS:          0  dACCESS:          0  dHIT:          0  dMISS:          0  itACCESS:          0  itHIT:          0  itMISS:          0  dtACCESS:          0  dtHIT:          0  dtMISS:          0
cpu0_DTLB PREFETCH     ACCESS:          0  HIT:          0  MISS:          0  iACCESS:          0  iHIT:          0  iMISS:          0  dACCESS:          0  dHIT:          0  dMISS:          0  itACCESS:          0  itHIT:          0  itMISS:          0  dtACCESS:          0  dtHIT:          0  dtMISS:          0
cpu0_DTLB WRITE        ACCESS:          0  HIT:          0  MISS:          0  iACCESS:          0  iHIT:          0  iMISS:          0  dACCESS:          0  dHIT:          0  dMISS:          0  itACCESS:          0  itHIT:          0  itMISS:          0  dtACCESS:          0  dtHIT:          0  dtMISS:          0
cpu0_DTLB TRANSLATION  ACCESS:          0  HIT:          0  MISS:          0  iACCESS:          0  iHIT:          0  iMISS:          0  dACCESS:          0  dHIT:          0  dMISS:          0  itACCESS:          0  itHIT:          0  itMISS:          0  dtACCESS:          0  dtHIT:          0  dtMISS:          0
cpu0_DTLB PREFETCH  REQUESTED:          0  ISSUED:          0  CROSSED:          0  USEFUL:          0  USELESS:          0
cpu0_DTLB AVERAGE iMISS LATENCY: 0 cycles
cpu0_DTLB AVERAGE dMISS LATENCY: 9.35671 cycles
cpu0_DTLB AVERAGE itMISS LATENCY: 0 cycles
cpu0_DTLB AVERAGE dtMISS LATENCY: 0 cycles
cpu0_DTLB PAGE CROSSINGS (TLB HIT):         0 
cpu0_DTLB PAGE CROSSINGS (TLB MISS):         0 
cpu0_DTLB AVERAGE MISS LATENCY: 9.35671 cycles
cpu0_STLB TOTAL       ACCESS:    2571380  HIT:    2437326  MISS:     134054  iACCESS:     339453  iHIT:     329530  iMISS:       9923  dACCESS:    2231927  dHIT:    2107796  dMISS:     124131  itACCESS:          0  itHIT:          0  itMISS:          0  dtACCESS:          0  dtHIT:          0  dtMISS:          0
cpu0_STLB LOAD         ACCESS:    2571380  HIT:    2437326  MISS:     134054  iACCESS:     339453  iHIT:     329530  iMISS:       9923  dACCESS:    2231927  dHIT:    2107796  dMISS:     124131  itACCESS:          0  itHIT:          0  itMISS:          0  dtACCESS:          0  dtHIT:          0  dtMISS:          0
cpu0_STLB RFO          ACCESS:          0  HIT:          0  MISS:          0  iACCESS:          0  iHIT:          0  iMISS:          0  dACCESS:          0  dHIT:          0  dMISS:          0  itACCESS:          0  itHIT:          0  itMISS:          0  dtACCESS:          0  dtHIT:          0  dtMISS:          0
cpu0_STLB PREFETCH     ACCESS:          0  HIT:          0  MISS:          0  iACCESS:          0  iHIT:          0  iMISS:          0  dACCESS:          0  dHIT:          0  dMISS:          0  itACCESS:          0  itHIT:          0  itMISS:          0  dtACCESS:          0  dtHIT:          0  dtMISS:          0
cpu0_STLB WRITE        ACCESS:          0  HIT:          0  MISS:          0  iACCESS:          0  iHIT:          0  iMISS:          0  dACCESS:          0  dHIT:          0  dMISS:          0  itACCESS:          0  itHIT:          0  itMISS:          0  dtACCESS:          0  dtHIT:          0  dtMISS:          0
cpu0_STLB TRANSLATION  ACCESS:          0  HIT:          0  MISS:          0  iACCESS:          0  iHIT:          0  iMISS:          0  dACCESS:          0  dHIT:          0  dMISS:          0  itACCESS:          0  itHIT:          0  itMISS:          0  dtACCESS:          0  dtHIT:          0  dtMISS:          0
cpu0_STLB PREFETCH  REQUESTED:          0  ISSUED:          0  CROSSED:          0  USEFUL:          0  USELESS:          0
cpu0_STLB AVERAGE iMISS LATENCY: 10.8995 cycles
cpu0_STLB AVERAGE dMISS LATENCY: 167.772 cycles
cpu0_STLB AVERAGE itMISS LATENCY: 0 cycles
cpu0_STLB AVERAGE dtMISS LATENCY: 0 cycles
cpu0_STLB PAGE CROSSINGS (TLB HIT):         0 
cpu0_STLB PAGE CROSSINGS (TLB MISS):         0 
cpu0_STLB AVERAGE MISS LATENCY: 178.671 cycles
cpu0_L1D TOTAL       ACCESS:   43867449  HIT:   38660986  MISS:    5206463  iACCESS:          0  iHIT:          0  iMISS:          0  dACCESS:   43666885  dHIT:   38648262  dMISS:    5018623  itACCESS:      11419  itHIT:       1290  itMISS:      10129  dtACCESS:     189145  dtHIT:      11434  dtMISS:     177711
cpu0_L1D LOAD         ACCESS:   21057652  HIT:   18034491  MISS:    3023161  iACCESS:          0  iHIT:          0  iMISS:          0  dACCESS:   21057652  dHIT:   18034491  dMISS:    3023161  itACCESS:          0  itHIT:          0  itMISS:          0  dtACCESS:          0  dtHIT:          0  dtMISS:          0
cpu0_L1D RFO          ACCESS:          0  HIT:          0  MISS:          0  iACCESS:          0  iHIT:          0  iMISS:          0  dACCESS:          0  dHIT:          0  dMISS:          0  itACCESS:          0  itHIT:          0  itMISS:          0  dtACCESS:          0  dtHIT:          0  dtMISS:          0
cpu0_L1D PREFETCH     ACCESS:   12777854  HIT:   11194815  MISS:    1583039  iACCESS:          0  iHIT:          0  iMISS:          0  dACCESS:   12777854  dHIT:   11194815  dMISS:    1583039  itACCESS:          0  itHIT:          0  itMISS:          0  dtACCESS:          0  dtHIT:          0  dtMISS:          0
cpu0_L1D WRITE        ACCESS:    9831379  HIT:    9418956  MISS:     412423  iACCESS:          0  iHIT:          0  iMISS:          0  dACCESS:    9831379  dHIT:    9418956  dMISS:     412423  itACCESS:          0  itHIT:          0  itMISS:          0  dtACCESS:          0  dtHIT:          0  dtMISS:          0
cpu0_L1D TRANSLATION  ACCESS:     200564  HIT:      12724  MISS:     187840  iACCESS:          0  iHIT:          0  iMISS:          0  dACCESS:          0  dHIT:          0  dMISS:          0  itACCESS:      11419  itHIT:       1290  itMISS:      10129  dtACCESS:     189145  dtHIT:      11434  dtMISS:     177711
cpu0_L1D PREFETCH  REQUESTED:   21057652  ISSUED:   17452477  CROSSED:          0  USEFUL:     273572  USELESS:     836086
cpu0_L1D AVERAGE iMISS LATENCY: 0 cycles
cpu0_L1D AVERAGE dMISS LATENCY: 24.6516 cycles
cpu0_L1D AVERAGE itMISS LATENCY: 0.257712 cycles
cpu0_L1D AVERAGE dtMISS LATENCY: 3.85628 cycles
cpu0_L1D PAGE CROSSINGS (TLB HIT):         0 
cpu0_L1D PAGE CROSSINGS (TLB MISS):         0 
cpu0_L1D AVERAGE MISS LATENCY: 28.7656 cycles
cpu0_L2C TOTAL       ACCESS:    8022178  HIT:    5375966  MISS:    2646212  iACCESS:    2950411  iHIT:    1973881  iMISS:     976530  dACCESS:    4896535  dHIT:    3372135  dMISS:    1524400  itACCESS:      10129  itHIT:       1985  itMISS:       8144  dtACCESS:     165103  dtHIT:      27965  dtMISS:     137138
cpu0_L2C LOAD         ACCESS:    3046371  HIT:    2430650  MISS:     615721  iACCESS:     700194  iHIT:     493673  iMISS:     206521  dACCESS:    2346177  dHIT:    1936977  dMISS:     409200  itACCESS:          0  itHIT:          0  itMISS:          0  dtACCESS:          0  dtHIT:          0  dtMISS:          0
cpu0_L2C RFO          ACCESS:     162314  HIT:      84994  MISS:      77320  iACCESS:          0  iHIT:          0  iMISS:          0  dACCESS:     162314  dHIT:      84994  dMISS:      77320  itACCESS:          0  itHIT:          0  itMISS:          0  dtACCESS:          0  dtHIT:          0  dtMISS:          0
cpu0_L2C PREFETCH     ACCESS:    4384636  HIT:    2578118  MISS:    1806518  iACCESS:    2250217  iHIT:    1480208  iMISS:     770009  dACCESS:    2134419  dHIT:    1097910  dMISS:    1036509  itACCESS:          0  itHIT:          0  itMISS:          0  dtACCESS:          0  dtHIT:          0  dtMISS:          0
cpu0_L2C WRITE        ACCESS:     253625  HIT:     252254  MISS:       1371  iACCESS:          0  iHIT:          0  iMISS:          0  dACCESS:     253625  dHIT:     252254  dMISS:       1371  itACCESS:          0  itHIT:          0  itMISS:          0  dtACCESS:          0  dtHIT:          0  dtMISS:          0
cpu0_L2C TRANSLATION  ACCESS:     175232  HIT:      29950  MISS:     145282  iACCESS:          0  iHIT:          0  iMISS:          0  dACCESS:          0  dHIT:          0  dMISS:          0  itACCESS:      10129  itHIT:       1985  itMISS:       8144  dtACCESS:     165103  dtHIT:      27965  dtMISS:     137138
cpu0_L2C PREFETCH  REQUESTED:    1254671  ISSUED:    1254670  CROSSED:          0  USEFUL:     295117  USELESS:     212342
cpu0_L2C AVERAGE iMISS LATENCY: 25.2738 cycles
cpu0_L2C AVERAGE dMISS LATENCY: 48.1729 cycles
cpu0_L2C AVERAGE itMISS LATENCY: 0.469417 cycles
cpu0_L2C AVERAGE dtMISS LATENCY: 6.96859 cycles
cpu0_L2C PAGE CROSSINGS (TLB HIT):         0 
cpu0_L2C PAGE CROSSINGS (TLB MISS):         0 
cpu0_L2C AVERAGE MISS LATENCY: 80.8846 cycles
LLC TOTAL       ACCESS:    2664278  HIT:    1626130  MISS:    1038148  iACCESS:     926128  iHIT:     593324  iMISS:     332804  dACCESS:    1592868  dHIT:     980736  dMISS:     612132  itACCESS:       8144  itHIT:       2051  itMISS:       6093  dtACCESS:     137138  dtHIT:      50019  dtMISS:      87119
LLC LOAD         ACCESS:     613610  HIT:     388393  MISS:     225217  iACCESS:     205419  iHIT:     135271  iMISS:      70148  dACCESS:     408191  dHIT:     253122  dMISS:     155069  itACCESS:          0  itHIT:          0  itMISS:          0  dtACCESS:          0  dtHIT:          0  dtMISS:          0
LLC RFO          ACCESS:      77316  HIT:      42268  MISS:      35048  iACCESS:          0  iHIT:          0  iMISS:          0  dACCESS:      77316  dHIT:      42268  dMISS:      35048  itACCESS:          0  itHIT:          0  itMISS:          0  dtACCESS:          0  dtHIT:          0  dtMISS:          0
LLC PREFETCH     ACCESS:    1705828  HIT:    1026873  MISS:     678955  iACCESS:     720709  iHIT:     458053  iMISS:     262656  dACCESS:     985119  dHIT:     568820  dMISS:     416299  itACCESS:          0  itHIT:          0  itMISS:          0  dtACCESS:          0  dtHIT:          0  dtMISS:          0
LLC WRITE        ACCESS:     122242  HIT:     116526  MISS:       5716  iACCESS:          0  iHIT:          0  iMISS:          0  dACCESS:     122242  dHIT:     116526  dMISS:       5716  itACCESS:          0  itHIT:          0  itMISS:          0  dtACCESS:          0  dtHIT:          0  dtMISS:          0
LLC TRANSLATION  ACCESS:     145282  HIT:      52070  MISS:      93212  iACCESS:          0  iHIT:          0  iMISS:          0  dACCESS:          0  dHIT:          0  dMISS:          0  itACCESS:       8144  itHIT:       2051  itMISS:       6093  dtACCESS:     137138  dtHIT:      50019  dtMISS:      87119
LLC PREFETCH  REQUESTED:          0  ISSUED:          0  CROSSED:          0  USEFUL:          0  USELESS:          0
LLC AVERAGE iMISS LATENCY: 47.0724 cycles
LLC AVERAGE dMISS LATENCY: 95.4685 cycles
LLC AVERAGE itMISS LATENCY: 1.04216 cycles
LLC AVERAGE dtMISS LATENCY: 15.1768 cycles
LLC PAGE CROSSINGS (TLB HIT):         0 
LLC PAGE CROSSINGS (TLB MISS):         0 
LLC AVERAGE MISS LATENCY: 158.76 cycles

PageTableWalker TOTAL       ACCESS:      75574  
PageTableWalker AVERAGE LATENCY: 5.69868 cycles
PageTableWalker TOTAL LATENCY: 430672 cycles

DRAM Statistics
Channel 0
 RQ ROW_BUFFER_HIT:     286760
  ROW_BUFFER_MISS:     744926
 AVG DBUS CONGESTED CYCLE:    3.62722
 WQ ROW_BUFFER_HIT:      20295
  ROW_BUFFER_MISS:      19516  FULL:          0

