last_page:0x200000000000000
VMEM_RES_CAP:0x100000
PAGE_SIZE:4096
LOG2_PAGE_SIZE:12
LOG2_PAGE_TABLE_SIZE:9
page_table_levels:5
WARNING: physical memory size is smaller than virtual memory size
FDiP enabled with aggresivity 16

*** ChampSim Multicore Out-of-Order Simulator ***

Warmup Instructions: 50000000
Simulation Instructions: 100000000
Number of CPUs: 1
Small page size: 4096
Large page size: 2097152

CPU 0 Bimodal branch predictor
Basic BTB sets: 1024 ways: 8 indirect buffer size: 4096 RAS size: 64
Instruction page size distrubution: 0
Loading instruction page size distribution from /home/bsc/bsc018186/scratch/itp_asplos25_AE/dump/srv768_ap.pdst
Data page size distrubution: 0
Loading data page size distribution from /home/bsc/bsc018186/scratch/itp_asplos25_AE/dump/srv768_ap.pdst
cpu0_L2C IP-based stride prefetcher
cpu0_L1D next line prefetcher
cpu0_STLB using iTP with max lru@8
cpu0_STLB using iTP with instr@0 and data@2
Init sat counter with 3 bits (max:50).
cpu0_L1I next line prefetcher
Off-chip DRAM Size: 4 GiB Channels: 1 Width: 64-bit Data Rate: 3200 MT/s
Heartbeat CPU 0 instructions: 10000002 cycles: 2500212 heartbeat IPC: 3.99967 cumulative IPC: 3.99967 (Simulation time: 0 hr 0 min 36 sec) 
Heartbeat CPU 0 instructions: 20000001 cycles: 5000226 heartbeat IPC: 3.99998 cumulative IPC: 3.99982 (Simulation time: 0 hr 1 min 14 sec) 
Heartbeat CPU 0 instructions: 30000002 cycles: 7500274 heartbeat IPC: 3.99993 cumulative IPC: 3.99986 (Simulation time: 0 hr 1 min 53 sec) 
Heartbeat CPU 0 instructions: 40000002 cycles: 10000335 heartbeat IPC: 3.99991 cumulative IPC: 3.99987 (Simulation time: 0 hr 2 min 31 sec) 
Heartbeat CPU 0 instructions: 50000002 cycles: 12500346 heartbeat IPC: 3.99999 cumulative IPC: 3.99989 (Simulation time: 0 hr 3 min 11 sec) 
Warmup finished CPU 0 instructions: 50000002 cycles: 12500347 cumulative IPC: 3.99989 (Simulation time: 0 hr 3 min 11 sec) 

Warmup complete CPU 0 instructions: 50000002 cycles: 12500347 (Simulation time: 0 hr 3 min 11 sec) 

Heartbeat CPU 0 instructions: 60000002 cycles: 26580256 heartbeat IPC: 0.710232 cumulative IPC: 0.710232 (Simulation time: 0 hr 4 min 12 sec) 
Heartbeat CPU 0 instructions: 70000001 cycles: 41121952 heartbeat IPC: 0.687678 cumulative IPC: 0.698773 (Simulation time: 0 hr 5 min 14 sec) 
Heartbeat CPU 0 instructions: 80000003 cycles: 56204781 heartbeat IPC: 0.663006 cumulative IPC: 0.68643 (Simulation time: 0 hr 6 min 17 sec) 
Heartbeat CPU 0 instructions: 90000000 cycles: 71622388 heartbeat IPC: 0.648609 cumulative IPC: 0.676567 (Simulation time: 0 hr 7 min 20 sec) 
Heartbeat CPU 0 instructions: 100000004 cycles: 85861134 heartbeat IPC: 0.70231 cumulative IPC: 0.681564 (Simulation time: 0 hr 8 min 22 sec) 
*** Reached end of trace: /gpfs/projects/bsc18/MN4/bsc18/romol/ChampSim/traces/qualcomm_srv/srv768_ap.champsimtrace.xz
Heartbeat CPU 0 instructions: 110000003 cycles: 99591983 heartbeat IPC: 0.728288 cumulative IPC: 0.68893 (Simulation time: 0 hr 9 min 23 sec) 
Heartbeat CPU 0 instructions: 120000003 cycles: 113081871 heartbeat IPC: 0.741296 cumulative IPC: 0.695953 (Simulation time: 0 hr 10 min 23 sec) 
Heartbeat CPU 0 instructions: 130000001 cycles: 127951432 heartbeat IPC: 0.672515 cumulative IPC: 0.692935 (Simulation time: 0 hr 11 min 25 sec) 
Heartbeat CPU 0 instructions: 140000000 cycles: 141607820 heartbeat IPC: 0.732258 cumulative IPC: 0.697094 (Simulation time: 0 hr 12 min 26 sec) 
Heartbeat CPU 0 instructions: 150000004 cycles: 156310629 heartbeat IPC: 0.680143 cumulative IPC: 0.695361 (Simulation time: 0 hr 13 min 27 sec) 
Simulation finished CPU 0 instructions: 100000002 cycles: 143810283 cumulative IPC: 0.695361 (Simulation time: 0 hr 13 min 27 sec) 

Simulation complete CPU 0 instructions: 100000002 cycles: 143810283 (Simulation time: 0 hr 13 min 27 sec) 


ChampSim completed all CPUs

Saving instructions large page distribution to /home/bsc/bsc018186/scratch/itp_asplos25_AE/dump/srv768_ap.pdst...
Saving data large page distribution to /home/bsc/bsc018186/scratch/itp_asplos25_AE/dump/srv768_ap.pdst...
=== Simulation ===
CPU 0 runs /gpfs/projects/bsc18/MN4/bsc18/romol/ChampSim/traces/qualcomm_srv/srv768_ap.champsimtrace.xz

Region of Interest Statistics

CPU 0 cumulative IPC: 0.695361 instructions: 100000002 cycles: 143810283
CPU 0 Branch Prediction Accuracy: 82.6658% MPKI: 31.0785 Average ROB Occupancy at Mispredict: 12.6773
Branch type MPKI
BRANCH_DIRECT_JUMP: 1.0394
BRANCH_INDIRECT: 16.0821
BRANCH_CONDITIONAL: 10.2179
BRANCH_DIRECT_CALL: 1.87843
BRANCH_INDIRECT_CALL: 0.51424
BRANCH_RETURN: 1.34649

Instructions large pages: 0
Instructions small pages: 10505
Large page distribution for instructions: 0%

Data large pages: 0
Data small pages: 9554
Large page distribution for data: 0%

cpu0_L1I TOTAL       ACCESS:   35659919  HIT:   27199821  MISS:    8460098  iACCESS:   35659919  iHIT:   27199821  iMISS:    8460098  dACCESS:          0  dHIT:          0  dMISS:          0  itACCESS:          0  itHIT:          0  itMISS:          0  dtACCESS:          0  dtHIT:          0  dtMISS:          0
cpu0_L1I LOAD         ACCESS:   10441055  HIT:    8066123  MISS:    2374932  iACCESS:   10441055  iHIT:    8066123  iMISS:    2374932  dACCESS:          0  dHIT:          0  dMISS:          0  itACCESS:          0  itHIT:          0  itMISS:          0  dtACCESS:          0  dtHIT:          0  dtMISS:          0
cpu0_L1I RFO          ACCESS:          0  HIT:          0  MISS:          0  iACCESS:          0  iHIT:          0  iMISS:          0  dACCESS:          0  dHIT:          0  dMISS:          0  itACCESS:          0  itHIT:          0  itMISS:          0  dtACCESS:          0  dtHIT:          0  dtMISS:          0
cpu0_L1I PREFETCH     ACCESS:   25218864  HIT:   19133698  MISS:    6085166  iACCESS:   25218864  iHIT:   19133698  iMISS:    6085166  dACCESS:          0  dHIT:          0  dMISS:          0  itACCESS:          0  itHIT:          0  itMISS:          0  dtACCESS:          0  dtHIT:          0  dtMISS:          0
cpu0_L1I WRITE        ACCESS:          0  HIT:          0  MISS:          0  iACCESS:          0  iHIT:          0  iMISS:          0  dACCESS:          0  dHIT:          0  dMISS:          0  itACCESS:          0  itHIT:          0  itMISS:          0  dtACCESS:          0  dtHIT:          0  dtMISS:          0
cpu0_L1I TRANSLATION  ACCESS:          0  HIT:          0  MISS:          0  iACCESS:          0  iHIT:          0  iMISS:          0  dACCESS:          0  dHIT:          0  dMISS:          0  itACCESS:          0  itHIT:          0  itMISS:          0  dtACCESS:          0  dtHIT:          0  dtMISS:          0
cpu0_L1I PREFETCH  REQUESTED:   27518873  ISSUED:   27515614  CROSSED:          0  USEFUL:    1950985  USELESS:     630850
cpu0_L1I AVERAGE iMISS LATENCY: 13.3608 cycles
cpu0_L1I AVERAGE dMISS LATENCY: 0 cycles
cpu0_L1I AVERAGE itMISS LATENCY: 0 cycles
cpu0_L1I AVERAGE dtMISS LATENCY: 0 cycles
cpu0_L1I PAGE CROSSINGS (TLB HIT):         0 
cpu0_L1I PAGE CROSSINGS (TLB MISS):         0 
cpu0_L1I AVERAGE MISS LATENCY: 13.3608 cycles
cpu0_ITLB TOTAL       ACCESS:   29503751  HIT:   27570459  MISS:    1933292  iACCESS:   29503751  iHIT:   27570459  iMISS:    1933292  dACCESS:          0  dHIT:          0  dMISS:          0  itACCESS:          0  itHIT:          0  itMISS:          0  dtACCESS:          0  dtHIT:          0  dtMISS:          0
cpu0_ITLB LOAD         ACCESS:   29503751  HIT:   27570459  MISS:    1933292  iACCESS:   29503751  iHIT:   27570459  iMISS:    1933292  dACCESS:          0  dHIT:          0  dMISS:          0  itACCESS:          0  itHIT:          0  itMISS:          0  dtACCESS:          0  dtHIT:          0  dtMISS:          0
cpu0_ITLB RFO          ACCESS:          0  HIT:          0  MISS:          0  iACCESS:          0  iHIT:          0  iMISS:          0  dACCESS:          0  dHIT:          0  dMISS:          0  itACCESS:          0  itHIT:          0  itMISS:          0  dtACCESS:          0  dtHIT:          0  dtMISS:          0
cpu0_ITLB PREFETCH     ACCESS:          0  HIT:          0  MISS:          0  iACCESS:          0  iHIT:          0  iMISS:          0  dACCESS:          0  dHIT:          0  dMISS:          0  itACCESS:          0  itHIT:          0  itMISS:          0  dtACCESS:          0  dtHIT:          0  dtMISS:          0
cpu0_ITLB WRITE        ACCESS:          0  HIT:          0  MISS:          0  iACCESS:          0  iHIT:          0  iMISS:          0  dACCESS:          0  dHIT:          0  dMISS:          0  itACCESS:          0  itHIT:          0  itMISS:          0  dtACCESS:          0  dtHIT:          0  dtMISS:          0
cpu0_ITLB TRANSLATION  ACCESS:          0  HIT:          0  MISS:          0  iACCESS:          0  iHIT:          0  iMISS:          0  dACCESS:          0  dHIT:          0  dMISS:          0  itACCESS:          0  itHIT:          0  itMISS:          0  dtACCESS:          0  dtHIT:          0  dtMISS:          0
cpu0_ITLB PREFETCH  REQUESTED:          0  ISSUED:          0  CROSSED:          0  USEFUL:     318664  USELESS:      63584
cpu0_ITLB AVERAGE iMISS LATENCY: 1.98226 cycles
cpu0_ITLB AVERAGE dMISS LATENCY: 0 cycles
cpu0_ITLB AVERAGE itMISS LATENCY: 0 cycles
cpu0_ITLB AVERAGE dtMISS LATENCY: 0 cycles
cpu0_ITLB PAGE CROSSINGS (TLB HIT):         0 
cpu0_ITLB PAGE CROSSINGS (TLB MISS):         0 
cpu0_ITLB AVERAGE MISS LATENCY: 1.98226 cycles
cpu0_DTLB TOTAL       ACCESS:   27931437  HIT:   25976061  MISS:    1955376  iACCESS:          0  iHIT:          0  iMISS:          0  dACCESS:   27931437  dHIT:   25976061  dMISS:    1955376  itACCESS:          0  itHIT:          0  itMISS:          0  dtACCESS:          0  dtHIT:          0  dtMISS:          0
cpu0_DTLB LOAD         ACCESS:   27931437  HIT:   25976061  MISS:    1955376  iACCESS:          0  iHIT:          0  iMISS:          0  dACCESS:   27931437  dHIT:   25976061  dMISS:    1955376  itACCESS:          0  itHIT:          0  itMISS:          0  dtACCESS:          0  dtHIT:          0  dtMISS:          0
cpu0_DTLB RFO          ACCESS:          0  HIT:          0  MISS:          0  iACCESS:          0  iHIT:          0  iMISS:          0  dACCESS:          0  dHIT:          0  dMISS:          0  itACCESS:          0  itHIT:          0  itMISS:          0  dtACCESS:          0  dtHIT:          0  dtMISS:          0
cpu0_DTLB PREFETCH     ACCESS:          0  HIT:          0  MISS:          0  iACCESS:          0  iHIT:          0  iMISS:          0  dACCESS:          0  dHIT:          0  dMISS:          0  itACCESS:          0  itHIT:          0  itMISS:          0  dtACCESS:          0  dtHIT:          0  dtMISS:          0
cpu0_DTLB WRITE        ACCESS:          0  HIT:          0  MISS:          0  iACCESS:          0  iHIT:          0  iMISS:          0  dACCESS:          0  dHIT:          0  dMISS:          0  itACCESS:          0  itHIT:          0  itMISS:          0  dtACCESS:          0  dtHIT:          0  dtMISS:          0
cpu0_DTLB TRANSLATION  ACCESS:          0  HIT:          0  MISS:          0  iACCESS:          0  iHIT:          0  iMISS:          0  dACCESS:          0  dHIT:          0  dMISS:          0  itACCESS:          0  itHIT:          0  itMISS:          0  dtACCESS:          0  dtHIT:          0  dtMISS:          0
cpu0_DTLB PREFETCH  REQUESTED:          0  ISSUED:          0  CROSSED:          0  USEFUL:          0  USELESS:          0
cpu0_DTLB AVERAGE iMISS LATENCY: 0 cycles
cpu0_DTLB AVERAGE dMISS LATENCY: 11.8508 cycles
cpu0_DTLB AVERAGE itMISS LATENCY: 0 cycles
cpu0_DTLB AVERAGE dtMISS LATENCY: 0 cycles
cpu0_DTLB PAGE CROSSINGS (TLB HIT):         0 
cpu0_DTLB PAGE CROSSINGS (TLB MISS):         0 
cpu0_DTLB AVERAGE MISS LATENCY: 11.8508 cycles
cpu0_STLB TOTAL       ACCESS:    1571855  HIT:    1427085  MISS:     144770  iACCESS:     382261  iHIT:     374012  iMISS:       8249  dACCESS:    1189594  dHIT:    1053073  dMISS:     136521  itACCESS:          0  itHIT:          0  itMISS:          0  dtACCESS:          0  dtHIT:          0  dtMISS:          0
cpu0_STLB LOAD         ACCESS:    1571855  HIT:    1427085  MISS:     144770  iACCESS:     382261  iHIT:     374012  iMISS:       8249  dACCESS:    1189594  dHIT:    1053073  dMISS:     136521  itACCESS:          0  itHIT:          0  itMISS:          0  dtACCESS:          0  dtHIT:          0  dtMISS:          0
cpu0_STLB RFO          ACCESS:          0  HIT:          0  MISS:          0  iACCESS:          0  iHIT:          0  iMISS:          0  dACCESS:          0  dHIT:          0  dMISS:          0  itACCESS:          0  itHIT:          0  itMISS:          0  dtACCESS:          0  dtHIT:          0  dtMISS:          0
cpu0_STLB PREFETCH     ACCESS:          0  HIT:          0  MISS:          0  iACCESS:          0  iHIT:          0  iMISS:          0  dACCESS:          0  dHIT:          0  dMISS:          0  itACCESS:          0  itHIT:          0  itMISS:          0  dtACCESS:          0  dtHIT:          0  dtMISS:          0
cpu0_STLB WRITE        ACCESS:          0  HIT:          0  MISS:          0  iACCESS:          0  iHIT:          0  iMISS:          0  dACCESS:          0  dHIT:          0  dMISS:          0  itACCESS:          0  itHIT:          0  itMISS:          0  dtACCESS:          0  dtHIT:          0  dtMISS:          0
cpu0_STLB TRANSLATION  ACCESS:          0  HIT:          0  MISS:          0  iACCESS:          0  iHIT:          0  iMISS:          0  dACCESS:          0  dHIT:          0  dMISS:          0  itACCESS:          0  itHIT:          0  itMISS:          0  dtACCESS:          0  dtHIT:          0  dtMISS:          0
cpu0_STLB PREFETCH  REQUESTED:          0  ISSUED:          0  CROSSED:          0  USEFUL:          0  USELESS:          0
cpu0_STLB AVERAGE iMISS LATENCY: 6.00078 cycles
cpu0_STLB AVERAGE dMISS LATENCY: 94.2504 cycles
cpu0_STLB AVERAGE itMISS LATENCY: 0 cycles
cpu0_STLB AVERAGE dtMISS LATENCY: 0 cycles
cpu0_STLB PAGE CROSSINGS (TLB HIT):         0 
cpu0_STLB PAGE CROSSINGS (TLB MISS):         0 
cpu0_STLB AVERAGE MISS LATENCY: 100.252 cycles
cpu0_L1D TOTAL       ACCESS:   41694182  HIT:   38285540  MISS:    3408642  iACCESS:          0  iHIT:          0  iMISS:          0  dACCESS:   41481498  dHIT:   38271868  dMISS:    3209630  itACCESS:       9894  itHIT:        929  itMISS:       8965  dtACCESS:     202790  dtHIT:      12743  dtMISS:     190047
cpu0_L1D LOAD         ACCESS:   19089602  HIT:   17625746  MISS:    1463856  iACCESS:          0  iHIT:          0  iMISS:          0  dACCESS:   19089602  dHIT:   17625746  dMISS:    1463856  itACCESS:          0  itHIT:          0  itMISS:          0  dtACCESS:          0  dtHIT:          0  dtMISS:          0
cpu0_L1D RFO          ACCESS:          0  HIT:          0  MISS:          0  iACCESS:          0  iHIT:          0  iMISS:          0  dACCESS:          0  dHIT:          0  dMISS:          0  itACCESS:          0  itHIT:          0  itMISS:          0  dtACCESS:          0  dtHIT:          0  dtMISS:          0
cpu0_L1D PREFETCH     ACCESS:   12195824  HIT:   10865870  MISS:    1329954  iACCESS:          0  iHIT:          0  iMISS:          0  dACCESS:   12195824  dHIT:   10865870  dMISS:    1329954  itACCESS:          0  itHIT:          0  itMISS:          0  dtACCESS:          0  dtHIT:          0  dtMISS:          0
cpu0_L1D WRITE        ACCESS:   10196072  HIT:    9780252  MISS:     415820  iACCESS:          0  iHIT:          0  iMISS:          0  dACCESS:   10196072  dHIT:    9780252  dMISS:     415820  itACCESS:          0  itHIT:          0  itMISS:          0  dtACCESS:          0  dtHIT:          0  dtMISS:          0
cpu0_L1D TRANSLATION  ACCESS:     212684  HIT:      13672  MISS:     199012  iACCESS:          0  iHIT:          0  iMISS:          0  dACCESS:          0  dHIT:          0  dMISS:          0  itACCESS:       9894  itHIT:        929  itMISS:       8965  dtACCESS:     202790  dtHIT:      12743  dtMISS:     190047
cpu0_L1D PREFETCH  REQUESTED:   19089602  ISSUED:   17048294  CROSSED:          0  USEFUL:     309362  USELESS:     699607
cpu0_L1D AVERAGE iMISS LATENCY: 0 cycles
cpu0_L1D AVERAGE dMISS LATENCY: 34.2583 cycles
cpu0_L1D AVERAGE itMISS LATENCY: 0.229295 cycles
cpu0_L1D AVERAGE dtMISS LATENCY: 3.21575 cycles
cpu0_L1D PAGE CROSSINGS (TLB HIT):         0 
cpu0_L1D PAGE CROSSINGS (TLB MISS):         0 
cpu0_L1D AVERAGE MISS LATENCY: 37.7033 cycles
cpu0_L2C TOTAL       ACCESS:    7016488  HIT:    1710238  MISS:    5306250  iACCESS:    3322535  iHIT:     885208  iMISS:    2437327  dACCESS:    3503962  dHIT:     724103  dMISS:    2779859  itACCESS:       8965  itHIT:       4230  itMISS:       4735  dtACCESS:     181026  dtHIT:      96697  dtMISS:      84329
cpu0_L2C LOAD         ACCESS:    1705209  HIT:     297538  MISS:    1407671  iACCESS:     779657  iHIT:     149785  iMISS:     629872  dACCESS:     925552  dHIT:     147753  dMISS:     777799  itACCESS:          0  itHIT:          0  itMISS:          0  dtACCESS:          0  dtHIT:          0  dtMISS:          0
cpu0_L2C RFO          ACCESS:     158513  HIT:      52076  MISS:     106437  iACCESS:          0  iHIT:          0  iMISS:          0  dACCESS:     158513  dHIT:      52076  dMISS:     106437  itACCESS:          0  itHIT:          0  itMISS:          0  dtACCESS:          0  dtHIT:          0  dtMISS:          0
cpu0_L2C PREFETCH     ACCESS:    4682401  HIT:    1119598  MISS:    3562803  iACCESS:    2542878  iHIT:     735423  iMISS:    1807455  dACCESS:    2139523  dHIT:     384175  dMISS:    1755348  itACCESS:          0  itHIT:          0  itMISS:          0  dtACCESS:          0  dtHIT:          0  dtMISS:          0
cpu0_L2C WRITE        ACCESS:     280374  HIT:     140099  MISS:     140275  iACCESS:          0  iHIT:          0  iMISS:          0  dACCESS:     280374  dHIT:     140099  dMISS:     140275  itACCESS:          0  itHIT:          0  itMISS:          0  dtACCESS:          0  dtHIT:          0  dtMISS:          0
cpu0_L2C TRANSLATION  ACCESS:     189991  HIT:     100927  MISS:      89064  iACCESS:          0  iHIT:          0  iMISS:          0  dACCESS:          0  dHIT:          0  dMISS:          0  itACCESS:       8965  itHIT:       4230  itMISS:       4735  dtACCESS:     181026  dtHIT:      96697  dtMISS:      84329
cpu0_L2C PREFETCH  REQUESTED:    1396641  ISSUED:    1396641  CROSSED:          0  USEFUL:     411291  USELESS:     375914
cpu0_L2C AVERAGE iMISS LATENCY: 15.4393 cycles
cpu0_L2C AVERAGE dMISS LATENCY: 25.6118 cycles
cpu0_L2C AVERAGE itMISS LATENCY: 0.131158 cycles
cpu0_L2C AVERAGE dtMISS LATENCY: 1.74094 cycles
cpu0_L2C PAGE CROSSINGS (TLB HIT):         0 
cpu0_L2C PAGE CROSSINGS (TLB MISS):         0 
cpu0_L2C AVERAGE MISS LATENCY: 42.9231 cycles
LLC TOTAL       ACCESS:    5189599  HIT:    4352734  MISS:     836865  iACCESS:    2383429  iHIT:    2135256  iMISS:     248173  dACCESS:    2717106  dHIT:    2175151  dMISS:     541955  itACCESS:       4735  itHIT:       1286  itMISS:       3449  dtACCESS:      84329  dtHIT:      41041  dtMISS:      43288
LLC LOAD         ACCESS:    1406086  HIT:    1223508  MISS:     182578  iACCESS:     628599  iHIT:     577483  iMISS:      51116  dACCESS:     777487  dHIT:     646025  dMISS:     131462  itACCESS:          0  itHIT:          0  itMISS:          0  dtACCESS:          0  dtHIT:          0  dtMISS:          0
LLC RFO          ACCESS:     106432  HIT:      70294  MISS:      36138  iACCESS:          0  iHIT:          0  iMISS:          0  dACCESS:     106432  dHIT:      70294  dMISS:      36138  itACCESS:          0  itHIT:          0  itMISS:          0  dtACCESS:          0  dtHIT:          0  dtMISS:          0
LLC PREFETCH     ACCESS:    3454757  HIT:    2892624  MISS:     562133  iACCESS:    1754830  iHIT:    1557773  iMISS:     197057  dACCESS:    1699927  dHIT:    1334851  dMISS:     365076  itACCESS:          0  itHIT:          0  itMISS:          0  dtACCESS:          0  dtHIT:          0  dtMISS:          0
LLC WRITE        ACCESS:     133260  HIT:     123981  MISS:       9279  iACCESS:          0  iHIT:          0  iMISS:          0  dACCESS:     133260  dHIT:     123981  dMISS:       9279  itACCESS:          0  itHIT:          0  itMISS:          0  dtACCESS:          0  dtHIT:          0  dtMISS:          0
LLC TRANSLATION  ACCESS:      89064  HIT:      42327  MISS:      46737  iACCESS:          0  iHIT:          0  iMISS:          0  dACCESS:          0  dHIT:          0  dMISS:          0  itACCESS:       4735  itHIT:       1286  itMISS:       3449  dtACCESS:      84329  dtHIT:      41041  dtMISS:      43288
LLC PREFETCH  REQUESTED:          0  ISSUED:          0  CROSSED:          0  USEFUL:          0  USELESS:          0
LLC AVERAGE iMISS LATENCY: 42.9649 cycles
LLC AVERAGE dMISS LATENCY: 102.673 cycles
LLC AVERAGE itMISS LATENCY: 0.720339 cycles
LLC AVERAGE dtMISS LATENCY: 9.07335 cycles
LLC PAGE CROSSINGS (TLB HIT):         0 
LLC PAGE CROSSINGS (TLB MISS):         0 
LLC AVERAGE MISS LATENCY: 155.431 cycles

PageTableWalker TOTAL       ACCESS:      70898  
PageTableWalker AVERAGE LATENCY: 5.08648 cycles
PageTableWalker TOTAL LATENCY: 360621 cycles

DRAM Statistics
Channel 0
 RQ ROW_BUFFER_HIT:     235639
  ROW_BUFFER_MISS:     591892
 AVG DBUS CONGESTED CYCLE:    3.62534
 WQ ROW_BUFFER_HIT:      16048
  ROW_BUFFER_MISS:      20650  FULL:          0

