last_page:0x200000000000000
VMEM_RES_CAP:0x100000
PAGE_SIZE:4096
LOG2_PAGE_SIZE:12
LOG2_PAGE_TABLE_SIZE:9
page_table_levels:5
WARNING: physical memory size is smaller than virtual memory size
FDiP enabled with aggresivity 16

*** ChampSim Multicore Out-of-Order Simulator ***

Warmup Instructions: 50000000
Simulation Instructions: 100000000
Number of CPUs: 1
Small page size: 4096
Large page size: 2097152

CPU 0 Bimodal branch predictor
Basic BTB sets: 1024 ways: 8 indirect buffer size: 4096 RAS size: 64
Instruction page size distrubution: 0
Loading instruction page size distribution from /home/bsc/bsc018186/scratch/itp_asplos25_AE/dump/srv742_ap.pdst
Data page size distrubution: 0
Loading data page size distribution from /home/bsc/bsc018186/scratch/itp_asplos25_AE/dump/srv742_ap.pdst
cpu0_L2C IP-based stride prefetcher
cpu0_L1D next line prefetcher
cpu0_STLB using iTP with max lru@8
cpu0_STLB using iTP with instr@0 and data@2
Init sat counter with 3 bits (max:50).
cpu0_L1I next line prefetcher
Off-chip DRAM Size: 4 GiB Channels: 1 Width: 64-bit Data Rate: 3200 MT/s
Heartbeat CPU 0 instructions: 10000000 cycles: 2933112 heartbeat IPC: 3.40935 cumulative IPC: 3.40935 (Simulation time: 0 hr 0 min 38 sec) 
Heartbeat CPU 0 instructions: 20000002 cycles: 5443122 heartbeat IPC: 3.98405 cumulative IPC: 3.67437 (Simulation time: 0 hr 1 min 12 sec) 
Heartbeat CPU 0 instructions: 30000001 cycles: 7943260 heartbeat IPC: 3.99978 cumulative IPC: 3.77679 (Simulation time: 0 hr 1 min 50 sec) 
Heartbeat CPU 0 instructions: 40000000 cycles: 10443726 heartbeat IPC: 3.99926 cumulative IPC: 3.83006 (Simulation time: 0 hr 2 min 30 sec) 
Heartbeat CPU 0 instructions: 50000002 cycles: 13185887 heartbeat IPC: 3.64676 cumulative IPC: 3.79194 (Simulation time: 0 hr 3 min 9 sec) 
Warmup finished CPU 0 instructions: 50000002 cycles: 13185888 cumulative IPC: 3.79194 (Simulation time: 0 hr 3 min 9 sec) 

Warmup complete CPU 0 instructions: 50000002 cycles: 13185888 (Simulation time: 0 hr 3 min 9 sec) 

Heartbeat CPU 0 instructions: 60000000 cycles: 34620563 heartbeat IPC: 0.466534 cumulative IPC: 0.466534 (Simulation time: 0 hr 4 min 20 sec) 
Heartbeat CPU 0 instructions: 70000003 cycles: 55676067 heartbeat IPC: 0.474936 cumulative IPC: 0.470698 (Simulation time: 0 hr 5 min 30 sec) 
Heartbeat CPU 0 instructions: 80000004 cycles: 70463987 heartbeat IPC: 0.676228 cumulative IPC: 0.523761 (Simulation time: 0 hr 6 min 34 sec) 
Heartbeat CPU 0 instructions: 90000004 cycles: 91566129 heartbeat IPC: 0.473886 cumulative IPC: 0.510333 (Simulation time: 0 hr 7 min 44 sec) 
Heartbeat CPU 0 instructions: 100000003 cycles: 100216741 heartbeat IPC: 1.15599 cumulative IPC: 0.574509 (Simulation time: 0 hr 8 min 32 sec) 
*** Reached end of trace: /gpfs/projects/bsc18/MN4/bsc18/romol/ChampSim/traces/qualcomm_srv/srv742_ap.champsimtrace.xz
Heartbeat CPU 0 instructions: 110000000 cycles: 113075490 heartbeat IPC: 0.777681 cumulative IPC: 0.600664 (Simulation time: 0 hr 9 min 33 sec) 
Heartbeat CPU 0 instructions: 120000003 cycles: 120777679 heartbeat IPC: 1.29834 cumulative IPC: 0.650608 (Simulation time: 0 hr 10 min 21 sec) 
Heartbeat CPU 0 instructions: 130000003 cycles: 139789435 heartbeat IPC: 0.525991 cumulative IPC: 0.631894 (Simulation time: 0 hr 11 min 28 sec) 
Heartbeat CPU 0 instructions: 140000003 cycles: 162038065 heartbeat IPC: 0.449466 cumulative IPC: 0.604627 (Simulation time: 0 hr 12 min 40 sec) 
Heartbeat CPU 0 instructions: 150000002 cycles: 178773791 heartbeat IPC: 0.597525 cumulative IPC: 0.603909 (Simulation time: 0 hr 13 min 46 sec) 
Simulation finished CPU 0 instructions: 100000000 cycles: 165587904 cumulative IPC: 0.603909 (Simulation time: 0 hr 13 min 46 sec) 

Simulation complete CPU 0 instructions: 100000000 cycles: 165587904 (Simulation time: 0 hr 13 min 46 sec) 


ChampSim completed all CPUs

Saving instructions large page distribution to /home/bsc/bsc018186/scratch/itp_asplos25_AE/dump/srv742_ap.pdst...
Saving data large page distribution to /home/bsc/bsc018186/scratch/itp_asplos25_AE/dump/srv742_ap.pdst...
=== Simulation ===
CPU 0 runs /gpfs/projects/bsc18/MN4/bsc18/romol/ChampSim/traces/qualcomm_srv/srv742_ap.champsimtrace.xz

Region of Interest Statistics

CPU 0 cumulative IPC: 0.603909 instructions: 100000000 cycles: 165587904
CPU 0 Branch Prediction Accuracy: 83.9656% MPKI: 32.2638 Average ROB Occupancy at Mispredict: 12.5042
Branch type MPKI
BRANCH_DIRECT_JUMP: 0.831981
BRANCH_INDIRECT: 16.9722
BRANCH_CONDITIONAL: 10.7476
BRANCH_DIRECT_CALL: 1.50648
BRANCH_INDIRECT_CALL: 1.05263
BRANCH_RETURN: 1.15294

Instructions large pages: 0
Instructions small pages: 1649
Large page distribution for instructions: 0%

Data large pages: 0
Data small pages: 6640
Large page distribution for data: 0%

cpu0_L1I TOTAL       ACCESS:   30296033  HIT:   24813731  MISS:    5482302  iACCESS:   30296033  iHIT:   24813731  iMISS:    5482302  dACCESS:          0  dHIT:          0  dMISS:          0  itACCESS:          0  itHIT:          0  itMISS:          0  dtACCESS:          0  dtHIT:          0  dtMISS:          0
cpu0_L1I LOAD         ACCESS:    6458254  HIT:    4930974  MISS:    1527280  iACCESS:    6458254  iHIT:    4930974  iMISS:    1527280  dACCESS:          0  dHIT:          0  dMISS:          0  itACCESS:          0  itHIT:          0  itMISS:          0  dtACCESS:          0  dtHIT:          0  dtMISS:          0
cpu0_L1I RFO          ACCESS:          0  HIT:          0  MISS:          0  iACCESS:          0  iHIT:          0  iMISS:          0  dACCESS:          0  dHIT:          0  dMISS:          0  itACCESS:          0  itHIT:          0  itMISS:          0  dtACCESS:          0  dtHIT:          0  dtMISS:          0
cpu0_L1I PREFETCH     ACCESS:   23837779  HIT:   19882757  MISS:    3955022  iACCESS:   23837779  iHIT:   19882757  iMISS:    3955022  dACCESS:          0  dHIT:          0  dMISS:          0  itACCESS:          0  itHIT:          0  itMISS:          0  dtACCESS:          0  dtHIT:          0  dtMISS:          0
cpu0_L1I WRITE        ACCESS:          0  HIT:          0  MISS:          0  iACCESS:          0  iHIT:          0  iMISS:          0  dACCESS:          0  dHIT:          0  dMISS:          0  itACCESS:          0  itHIT:          0  itMISS:          0  dtACCESS:          0  dtHIT:          0  dtMISS:          0
cpu0_L1I TRANSLATION  ACCESS:          0  HIT:          0  MISS:          0  iACCESS:          0  iHIT:          0  iMISS:          0  dACCESS:          0  dHIT:          0  dMISS:          0  itACCESS:          0  itHIT:          0  itMISS:          0  dtACCESS:          0  dtHIT:          0  dtMISS:          0
cpu0_L1I PREFETCH  REQUESTED:   25043714  ISSUED:   25042138  CROSSED:          0  USEFUL:    1271693  USELESS:     479916
cpu0_L1I AVERAGE iMISS LATENCY: 20.9773 cycles
cpu0_L1I AVERAGE dMISS LATENCY: 0 cycles
cpu0_L1I AVERAGE itMISS LATENCY: 0 cycles
cpu0_L1I AVERAGE dtMISS LATENCY: 0 cycles
cpu0_L1I PAGE CROSSINGS (TLB HIT):         0 
cpu0_L1I PAGE CROSSINGS (TLB MISS):         0 
cpu0_L1I AVERAGE MISS LATENCY: 20.9773 cycles
cpu0_ITLB TOTAL       ACCESS:   25948704  HIT:   24696992  MISS:    1251712  iACCESS:   25948704  iHIT:   24696992  iMISS:    1251712  dACCESS:          0  dHIT:          0  dMISS:          0  itACCESS:          0  itHIT:          0  itMISS:          0  dtACCESS:          0  dtHIT:          0  dtMISS:          0
cpu0_ITLB LOAD         ACCESS:   25948704  HIT:   24696992  MISS:    1251712  iACCESS:   25948704  iHIT:   24696992  iMISS:    1251712  dACCESS:          0  dHIT:          0  dMISS:          0  itACCESS:          0  itHIT:          0  itMISS:          0  dtACCESS:          0  dtHIT:          0  dtMISS:          0
cpu0_ITLB RFO          ACCESS:          0  HIT:          0  MISS:          0  iACCESS:          0  iHIT:          0  iMISS:          0  dACCESS:          0  dHIT:          0  dMISS:          0  itACCESS:          0  itHIT:          0  itMISS:          0  dtACCESS:          0  dtHIT:          0  dtMISS:          0
cpu0_ITLB PREFETCH     ACCESS:          0  HIT:          0  MISS:          0  iACCESS:          0  iHIT:          0  iMISS:          0  dACCESS:          0  dHIT:          0  dMISS:          0  itACCESS:          0  itHIT:          0  itMISS:          0  dtACCESS:          0  dtHIT:          0  dtMISS:          0
cpu0_ITLB WRITE        ACCESS:          0  HIT:          0  MISS:          0  iACCESS:          0  iHIT:          0  iMISS:          0  dACCESS:          0  dHIT:          0  dMISS:          0  itACCESS:          0  itHIT:          0  itMISS:          0  dtACCESS:          0  dtHIT:          0  dtMISS:          0
cpu0_ITLB TRANSLATION  ACCESS:          0  HIT:          0  MISS:          0  iACCESS:          0  iHIT:          0  iMISS:          0  dACCESS:          0  dHIT:          0  dMISS:          0  itACCESS:          0  itHIT:          0  itMISS:          0  dtACCESS:          0  dtHIT:          0  dtMISS:          0
cpu0_ITLB PREFETCH  REQUESTED:          0  ISSUED:          0  CROSSED:          0  USEFUL:     217501  USELESS:      42827
cpu0_ITLB AVERAGE iMISS LATENCY: 3.78203 cycles
cpu0_ITLB AVERAGE dMISS LATENCY: 0 cycles
cpu0_ITLB AVERAGE itMISS LATENCY: 0 cycles
cpu0_ITLB AVERAGE dtMISS LATENCY: 0 cycles
cpu0_ITLB PAGE CROSSINGS (TLB HIT):         0 
cpu0_ITLB PAGE CROSSINGS (TLB MISS):         0 
cpu0_ITLB AVERAGE MISS LATENCY: 3.78203 cycles
cpu0_DTLB TOTAL       ACCESS:   32566735  HIT:   27414106  MISS:    5152629  iACCESS:          0  iHIT:          0  iMISS:          0  dACCESS:   32566735  dHIT:   27414106  dMISS:    5152629  itACCESS:          0  itHIT:          0  itMISS:          0  dtACCESS:          0  dtHIT:          0  dtMISS:          0
cpu0_DTLB LOAD         ACCESS:   32566735  HIT:   27414106  MISS:    5152629  iACCESS:          0  iHIT:          0  iMISS:          0  dACCESS:   32566735  dHIT:   27414106  dMISS:    5152629  itACCESS:          0  itHIT:          0  itMISS:          0  dtACCESS:          0  dtHIT:          0  dtMISS:          0
cpu0_DTLB RFO          ACCESS:          0  HIT:          0  MISS:          0  iACCESS:          0  iHIT:          0  iMISS:          0  dACCESS:          0  dHIT:          0  dMISS:          0  itACCESS:          0  itHIT:          0  itMISS:          0  dtACCESS:          0  dtHIT:          0  dtMISS:          0
cpu0_DTLB PREFETCH     ACCESS:          0  HIT:          0  MISS:          0  iACCESS:          0  iHIT:          0  iMISS:          0  dACCESS:          0  dHIT:          0  dMISS:          0  itACCESS:          0  itHIT:          0  itMISS:          0  dtACCESS:          0  dtHIT:          0  dtMISS:          0
cpu0_DTLB WRITE        ACCESS:          0  HIT:          0  MISS:          0  iACCESS:          0  iHIT:          0  iMISS:          0  dACCESS:          0  dHIT:          0  dMISS:          0  itACCESS:          0  itHIT:          0  itMISS:          0  dtACCESS:          0  dtHIT:          0  dtMISS:          0
cpu0_DTLB TRANSLATION  ACCESS:          0  HIT:          0  MISS:          0  iACCESS:          0  iHIT:          0  iMISS:          0  dACCESS:          0  dHIT:          0  dMISS:          0  itACCESS:          0  itHIT:          0  itMISS:          0  dtACCESS:          0  dtHIT:          0  dtMISS:          0
cpu0_DTLB PREFETCH  REQUESTED:          0  ISSUED:          0  CROSSED:          0  USEFUL:          0  USELESS:          0
cpu0_DTLB AVERAGE iMISS LATENCY: 0 cycles
cpu0_DTLB AVERAGE dMISS LATENCY: 7.0568 cycles
cpu0_DTLB AVERAGE itMISS LATENCY: 0 cycles
cpu0_DTLB AVERAGE dtMISS LATENCY: 0 cycles
cpu0_DTLB PAGE CROSSINGS (TLB HIT):         0 
cpu0_DTLB PAGE CROSSINGS (TLB MISS):         0 
cpu0_DTLB AVERAGE MISS LATENCY: 7.0568 cycles
cpu0_STLB TOTAL       ACCESS:    2922650  HIT:    2761083  MISS:     161567  iACCESS:     260332  iHIT:     232755  iMISS:      27577  dACCESS:    2662318  dHIT:    2528328  dMISS:     133990  itACCESS:          0  itHIT:          0  itMISS:          0  dtACCESS:          0  dtHIT:          0  dtMISS:          0
cpu0_STLB LOAD         ACCESS:    2922650  HIT:    2761083  MISS:     161567  iACCESS:     260332  iHIT:     232755  iMISS:      27577  dACCESS:    2662318  dHIT:    2528328  dMISS:     133990  itACCESS:          0  itHIT:          0  itMISS:          0  dtACCESS:          0  dtHIT:          0  dtMISS:          0
cpu0_STLB RFO          ACCESS:          0  HIT:          0  MISS:          0  iACCESS:          0  iHIT:          0  iMISS:          0  dACCESS:          0  dHIT:          0  dMISS:          0  itACCESS:          0  itHIT:          0  itMISS:          0  dtACCESS:          0  dtHIT:          0  dtMISS:          0
cpu0_STLB PREFETCH     ACCESS:          0  HIT:          0  MISS:          0  iACCESS:          0  iHIT:          0  iMISS:          0  dACCESS:          0  dHIT:          0  dMISS:          0  itACCESS:          0  itHIT:          0  itMISS:          0  dtACCESS:          0  dtHIT:          0  dtMISS:          0
cpu0_STLB WRITE        ACCESS:          0  HIT:          0  MISS:          0  iACCESS:          0  iHIT:          0  iMISS:          0  dACCESS:          0  dHIT:          0  dMISS:          0  itACCESS:          0  itHIT:          0  itMISS:          0  dtACCESS:          0  dtHIT:          0  dtMISS:          0
cpu0_STLB TRANSLATION  ACCESS:          0  HIT:          0  MISS:          0  iACCESS:          0  iHIT:          0  iMISS:          0  dACCESS:          0  dHIT:          0  dMISS:          0  itACCESS:          0  itHIT:          0  itMISS:          0  dtACCESS:          0  dtHIT:          0  dtMISS:          0
cpu0_STLB PREFETCH  REQUESTED:          0  ISSUED:          0  CROSSED:          0  USEFUL:          0  USELESS:          0
cpu0_STLB AVERAGE iMISS LATENCY: 16.6588 cycles
cpu0_STLB AVERAGE dMISS LATENCY: 91.1113 cycles
cpu0_STLB AVERAGE itMISS LATENCY: 0 cycles
cpu0_STLB AVERAGE dtMISS LATENCY: 0 cycles
cpu0_STLB PAGE CROSSINGS (TLB HIT):         0 
cpu0_STLB PAGE CROSSINGS (TLB MISS):         0 
cpu0_STLB AVERAGE MISS LATENCY: 107.771 cycles
cpu0_L1D TOTAL       ACCESS:   51174437  HIT:   41570084  MISS:    9604353  iACCESS:          0  iHIT:          0  iMISS:          0  dACCESS:   50948922  dHIT:   41556077  dMISS:    9392845  itACCESS:      32871  itHIT:       3082  itMISS:      29789  dtACCESS:     192644  dtHIT:      10925  dtMISS:     181719
cpu0_L1D LOAD         ACCESS:   26078936  HIT:   20260756  MISS:    5818180  iACCESS:          0  iHIT:          0  iMISS:          0  dACCESS:   26078936  dHIT:   20260756  dMISS:    5818180  itACCESS:          0  itHIT:          0  itMISS:          0  dtACCESS:          0  dtHIT:          0  dtMISS:          0
cpu0_L1D RFO          ACCESS:          0  HIT:          0  MISS:          0  iACCESS:          0  iHIT:          0  iMISS:          0  dACCESS:          0  dHIT:          0  dMISS:          0  itACCESS:          0  itHIT:          0  itMISS:          0  dtACCESS:          0  dtHIT:          0  dtMISS:          0
cpu0_L1D PREFETCH     ACCESS:   15265744  HIT:   12242697  MISS:    3023047  iACCESS:          0  iHIT:          0  iMISS:          0  dACCESS:   15265744  dHIT:   12242697  dMISS:    3023047  itACCESS:          0  itHIT:          0  itMISS:          0  dtACCESS:          0  dtHIT:          0  dtMISS:          0
cpu0_L1D WRITE        ACCESS:    9604242  HIT:    9052624  MISS:     551618  iACCESS:          0  iHIT:          0  iMISS:          0  dACCESS:    9604242  dHIT:    9052624  dMISS:     551618  itACCESS:          0  itHIT:          0  itMISS:          0  dtACCESS:          0  dtHIT:          0  dtMISS:          0
cpu0_L1D TRANSLATION  ACCESS:     225515  HIT:      14007  MISS:     211508  iACCESS:          0  iHIT:          0  iMISS:          0  dACCESS:          0  dHIT:          0  dMISS:          0  itACCESS:      32871  itHIT:       3082  itMISS:      29789  dtACCESS:     192644  dtHIT:      10925  dtMISS:     181719
cpu0_L1D PREFETCH  REQUESTED:   26078936  ISSUED:   19192061  CROSSED:          0  USEFUL:     260036  USELESS:     632430
cpu0_L1D AVERAGE iMISS LATENCY: 0 cycles
cpu0_L1D AVERAGE dMISS LATENCY: 21.9899 cycles
cpu0_L1D AVERAGE itMISS LATENCY: 0.244168 cycles
cpu0_L1D AVERAGE dtMISS LATENCY: 1.32019 cycles
cpu0_L1D PAGE CROSSINGS (TLB HIT):         0 
cpu0_L1D PAGE CROSSINGS (TLB MISS):         0 
cpu0_L1D AVERAGE MISS LATENCY: 23.5543 cycles
cpu0_L2C TOTAL       ACCESS:    7893236  HIT:    2345513  MISS:    5547723  iACCESS:    2239215  iHIT:     517513  iMISS:    1721702  dACCESS:    5463325  dHIT:    1731211  dMISS:    3732114  itACCESS:      27500  itHIT:      12763  itMISS:      14737  dtACCESS:     163196  dtHIT:      84026  dtMISS:      79170
cpu0_L2C LOAD         ACCESS:    3885663  HIT:    1382943  MISS:    2502720  iACCESS:     505889  iHIT:      89157  iMISS:     416732  dACCESS:    3379774  dHIT:    1293786  dMISS:    2085988  itACCESS:          0  itHIT:          0  itMISS:          0  dtACCESS:          0  dtHIT:          0  dtMISS:          0
cpu0_L2C RFO          ACCESS:     170582  HIT:      51226  MISS:     119356  iACCESS:          0  iHIT:          0  iMISS:          0  dACCESS:     170582  dHIT:      51226  dMISS:     119356  itACCESS:          0  itHIT:          0  itMISS:          0  dtACCESS:          0  dtHIT:          0  dtMISS:          0
cpu0_L2C PREFETCH     ACCESS:    3422639  HIT:     718769  MISS:    2703870  iACCESS:    1733326  iHIT:     428356  iMISS:    1304970  dACCESS:    1689313  dHIT:     290413  dMISS:    1398900  itACCESS:          0  itHIT:          0  itMISS:          0  dtACCESS:          0  dtHIT:          0  dtMISS:          0
cpu0_L2C WRITE        ACCESS:     223656  HIT:      95786  MISS:     127870  iACCESS:          0  iHIT:          0  iMISS:          0  dACCESS:     223656  dHIT:      95786  dMISS:     127870  itACCESS:          0  itHIT:          0  itMISS:          0  dtACCESS:          0  dtHIT:          0  dtMISS:          0
cpu0_L2C TRANSLATION  ACCESS:     190696  HIT:      96789  MISS:      93907  iACCESS:          0  iHIT:          0  iMISS:          0  dACCESS:          0  dHIT:          0  dMISS:          0  itACCESS:      27500  itHIT:      12763  itMISS:      14737  dtACCESS:     163196  dtHIT:      84026  dtMISS:      79170
cpu0_L2C PREFETCH  REQUESTED:     931273  ISSUED:     931273  CROSSED:          0  USEFUL:     234158  USELESS:     302452
cpu0_L2C AVERAGE iMISS LATENCY: 17.1798 cycles
cpu0_L2C AVERAGE dMISS LATENCY: 38.4021 cycles
cpu0_L2C AVERAGE itMISS LATENCY: 0.375302 cycles
cpu0_L2C AVERAGE dtMISS LATENCY: 2.0053 cycles
cpu0_L2C PAGE CROSSINGS (TLB HIT):         0 
cpu0_L2C PAGE CROSSINGS (TLB MISS):         0 
cpu0_L2C AVERAGE MISS LATENCY: 57.9624 cycles
LLC TOTAL       ACCESS:    5429503  HIT:    4071107  MISS:    1358396  iACCESS:    1675467  iHIT:    1251505  iMISS:     423962  dACCESS:    3660129  dHIT:    2786136  dMISS:     873993  itACCESS:      14737  itHIT:       4517  itMISS:      10220  dtACCESS:      79170  dtHIT:      28949  dtMISS:      50221
LLC LOAD         ACCESS:    2496938  HIT:    2156615  MISS:     340323  iACCESS:     415848  iHIT:     329801  iMISS:      86047  dACCESS:    2081090  dHIT:    1826814  dMISS:     254276  itACCESS:          0  itHIT:          0  itMISS:          0  dtACCESS:          0  dtHIT:          0  dtMISS:          0
LLC RFO          ACCESS:     119355  HIT:      61559  MISS:      57796  iACCESS:          0  iHIT:          0  iMISS:          0  dACCESS:     119355  dHIT:      61559  dMISS:      57796  itACCESS:          0  itHIT:          0  itMISS:          0  dtACCESS:          0  dtHIT:          0  dtMISS:          0
LLC PREFETCH     ACCESS:    2578602  HIT:    1688551  MISS:     890051  iACCESS:    1259619  iHIT:     921704  iMISS:     337915  dACCESS:    1318983  dHIT:     766847  dMISS:     552136  itACCESS:          0  itHIT:          0  itMISS:          0  dtACCESS:          0  dtHIT:          0  dtMISS:          0
LLC WRITE        ACCESS:     140701  HIT:     130916  MISS:       9785  iACCESS:          0  iHIT:          0  iMISS:          0  dACCESS:     140701  dHIT:     130916  dMISS:       9785  itACCESS:          0  itHIT:          0  itMISS:          0  dtACCESS:          0  dtHIT:          0  dtMISS:          0
LLC TRANSLATION  ACCESS:      93907  HIT:      33466  MISS:      60441  iACCESS:          0  iHIT:          0  iMISS:          0  dACCESS:          0  dHIT:          0  dMISS:          0  itACCESS:      14737  itHIT:       4517  itMISS:      10220  dtACCESS:      79170  dtHIT:      28949  dtMISS:      50221
LLC PREFETCH  REQUESTED:          0  ISSUED:          0  CROSSED:          0  USEFUL:          0  USELESS:          0
LLC AVERAGE iMISS LATENCY: 46.2453 cycles
LLC AVERAGE dMISS LATENCY: 107.569 cycles
LLC AVERAGE itMISS LATENCY: 1.31952 cycles
LLC AVERAGE dtMISS LATENCY: 7.04834 cycles
LLC PAGE CROSSINGS (TLB HIT):         0 
LLC PAGE CROSSINGS (TLB MISS):         0 
LLC AVERAGE MISS LATENCY: 162.182 cycles

PageTableWalker TOTAL       ACCESS:      76444  
PageTableWalker AVERAGE LATENCY: 4.70175 cycles
PageTableWalker TOTAL LATENCY: 359420 cycles

DRAM Statistics
Channel 0
 RQ ROW_BUFFER_HIT:     404492
  ROW_BUFFER_MISS:     932064
 AVG DBUS CONGESTED CYCLE:    3.65181
 WQ ROW_BUFFER_HIT:      30305
  ROW_BUFFER_MISS:      29972  FULL:          0

