last_page:0x200000000000000
VMEM_RES_CAP:0x100000
PAGE_SIZE:4096
LOG2_PAGE_SIZE:12
LOG2_PAGE_TABLE_SIZE:9
page_table_levels:5
WARNING: physical memory size is smaller than virtual memory size
FDiP enabled with aggresivity 16

*** ChampSim Multicore Out-of-Order Simulator ***

Warmup Instructions: 50000000
Simulation Instructions: 100000000
Number of CPUs: 1
Small page size: 4096
Large page size: 2097152

CPU 0 Bimodal branch predictor
Basic BTB sets: 1024 ways: 8 indirect buffer size: 4096 RAS size: 64
Instruction page size distrubution: 0
Loading instruction page size distribution from /home/bsc/bsc018186/scratch/itp_asplos25_AE/dump/srv715_ap.pdst
Data page size distrubution: 0
Loading data page size distribution from /home/bsc/bsc018186/scratch/itp_asplos25_AE/dump/srv715_ap.pdst
cpu0_L2C IP-based stride prefetcher
cpu0_L1D next line prefetcher
cpu0_L1I next line prefetcher
Off-chip DRAM Size: 4 GiB Channels: 1 Width: 64-bit Data Rate: 3200 MT/s
Heartbeat CPU 0 instructions: 10000001 cycles: 2500888 heartbeat IPC: 3.99859 cumulative IPC: 3.99859 (Simulation time: 0 hr 0 min 40 sec) 
Heartbeat CPU 0 instructions: 20000003 cycles: 5002642 heartbeat IPC: 3.9972 cumulative IPC: 3.99789 (Simulation time: 0 hr 1 min 21 sec) 
Heartbeat CPU 0 instructions: 30000003 cycles: 7502893 heartbeat IPC: 3.9996 cumulative IPC: 3.99846 (Simulation time: 0 hr 2 min 4 sec) 
Heartbeat CPU 0 instructions: 40000002 cycles: 10002986 heartbeat IPC: 3.99986 cumulative IPC: 3.99881 (Simulation time: 0 hr 2 min 47 sec) 
Heartbeat CPU 0 instructions: 50000000 cycles: 12503114 heartbeat IPC: 3.9998 cumulative IPC: 3.99901 (Simulation time: 0 hr 3 min 29 sec) 
Warmup finished CPU 0 instructions: 50000000 cycles: 12503115 cumulative IPC: 3.99901 (Simulation time: 0 hr 3 min 29 sec) 

Warmup complete CPU 0 instructions: 50000000 cycles: 12503115 (Simulation time: 0 hr 3 min 29 sec) 

Heartbeat CPU 0 instructions: 60000002 cycles: 31318002 heartbeat IPC: 0.531495 cumulative IPC: 0.531495 (Simulation time: 0 hr 4 min 41 sec) 
Heartbeat CPU 0 instructions: 70000000 cycles: 49766208 heartbeat IPC: 0.542059 cumulative IPC: 0.536725 (Simulation time: 0 hr 5 min 53 sec) 
Heartbeat CPU 0 instructions: 80000000 cycles: 68403159 heartbeat IPC: 0.536569 cumulative IPC: 0.536673 (Simulation time: 0 hr 7 min 5 sec) 
Heartbeat CPU 0 instructions: 90000000 cycles: 75298187 heartbeat IPC: 1.45033 cumulative IPC: 0.636993 (Simulation time: 0 hr 8 min 3 sec) 
Heartbeat CPU 0 instructions: 100000000 cycles: 94348370 heartbeat IPC: 0.52493 cumulative IPC: 0.610909 (Simulation time: 0 hr 9 min 16 sec) 
*** Reached end of trace: /gpfs/projects/bsc18/MN4/bsc18/romol/ChampSim/traces/qualcomm_srv/srv715_ap.champsimtrace.xz
Heartbeat CPU 0 instructions: 110000004 cycles: 114102053 heartbeat IPC: 0.506235 cumulative IPC: 0.590558 (Simulation time: 0 hr 10 min 29 sec) 
Heartbeat CPU 0 instructions: 120000000 cycles: 133172022 heartbeat IPC: 0.524385 cumulative IPC: 0.5801 (Simulation time: 0 hr 11 min 41 sec) 
Heartbeat CPU 0 instructions: 130000001 cycles: 153472465 heartbeat IPC: 0.492601 cumulative IPC: 0.5675 (Simulation time: 0 hr 12 min 55 sec) 
Heartbeat CPU 0 instructions: 140000003 cycles: 173164975 heartbeat IPC: 0.507808 cumulative IPC: 0.560183 (Simulation time: 0 hr 14 min 9 sec) 
Heartbeat CPU 0 instructions: 150000002 cycles: 193350943 heartbeat IPC: 0.495394 cumulative IPC: 0.552952 (Simulation time: 0 hr 15 min 24 sec) 
Simulation finished CPU 0 instructions: 100000002 cycles: 180847829 cumulative IPC: 0.552952 (Simulation time: 0 hr 15 min 24 sec) 

Simulation complete CPU 0 instructions: 100000002 cycles: 180847829 (Simulation time: 0 hr 15 min 24 sec) 


ChampSim completed all CPUs

Saving instructions large page distribution to /home/bsc/bsc018186/scratch/itp_asplos25_AE/dump/srv715_ap.pdst...
Saving data large page distribution to /home/bsc/bsc018186/scratch/itp_asplos25_AE/dump/srv715_ap.pdst...
=== Simulation ===
CPU 0 runs /gpfs/projects/bsc18/MN4/bsc18/romol/ChampSim/traces/qualcomm_srv/srv715_ap.champsimtrace.xz

Region of Interest Statistics

CPU 0 cumulative IPC: 0.552952 instructions: 100000002 cycles: 180847829
CPU 0 Branch Prediction Accuracy: 82.4813% MPKI: 33.9338 Average ROB Occupancy at Mispredict: 11.4562
Branch type MPKI
BRANCH_DIRECT_JUMP: 1.25524
BRANCH_INDIRECT: 17.3725
BRANCH_CONDITIONAL: 10.6191
BRANCH_DIRECT_CALL: 2.32746
BRANCH_INDIRECT_CALL: 0.69896
BRANCH_RETURN: 1.66061

Instructions large pages: 0
Instructions small pages: 1202
Large page distribution for instructions: 0%

Data large pages: 0
Data small pages: 5167
Large page distribution for data: 0%

cpu0_L1I TOTAL       ACCESS:   35394642  HIT:   27794185  MISS:    7600457  iACCESS:   35394642  iHIT:   27794185  iMISS:    7600457  dACCESS:          0  dHIT:          0  dMISS:          0  itACCESS:          0  itHIT:          0  itMISS:          0  dtACCESS:          0  dtHIT:          0  dtMISS:          0
cpu0_L1I LOAD         ACCESS:    9452458  HIT:    7360796  MISS:    2091662  iACCESS:    9452458  iHIT:    7360796  iMISS:    2091662  dACCESS:          0  dHIT:          0  dMISS:          0  itACCESS:          0  itHIT:          0  itMISS:          0  dtACCESS:          0  dtHIT:          0  dtMISS:          0
cpu0_L1I RFO          ACCESS:          0  HIT:          0  MISS:          0  iACCESS:          0  iHIT:          0  iMISS:          0  dACCESS:          0  dHIT:          0  dMISS:          0  itACCESS:          0  itHIT:          0  itMISS:          0  dtACCESS:          0  dtHIT:          0  dtMISS:          0
cpu0_L1I PREFETCH     ACCESS:   25942184  HIT:   20433389  MISS:    5508795  iACCESS:   25942184  iHIT:   20433389  iMISS:    5508795  dACCESS:          0  dHIT:          0  dMISS:          0  itACCESS:          0  itHIT:          0  itMISS:          0  dtACCESS:          0  dtHIT:          0  dtMISS:          0
cpu0_L1I WRITE        ACCESS:          0  HIT:          0  MISS:          0  iACCESS:          0  iHIT:          0  iMISS:          0  dACCESS:          0  dHIT:          0  dMISS:          0  itACCESS:          0  itHIT:          0  itMISS:          0  dtACCESS:          0  dtHIT:          0  dtMISS:          0
cpu0_L1I TRANSLATION  ACCESS:          0  HIT:          0  MISS:          0  iACCESS:          0  iHIT:          0  iMISS:          0  dACCESS:          0  dHIT:          0  dMISS:          0  itACCESS:          0  itHIT:          0  itMISS:          0  dtACCESS:          0  dtHIT:          0  dtMISS:          0
cpu0_L1I PREFETCH  REQUESTED:   27992141  ISSUED:   27991208  CROSSED:          0  USEFUL:    1805978  USELESS:     611005
cpu0_L1I AVERAGE iMISS LATENCY: 19.4399 cycles
cpu0_L1I AVERAGE dMISS LATENCY: 0 cycles
cpu0_L1I AVERAGE itMISS LATENCY: 0 cycles
cpu0_L1I AVERAGE dtMISS LATENCY: 0 cycles
cpu0_L1I PAGE CROSSINGS (TLB HIT):         0 
cpu0_L1I PAGE CROSSINGS (TLB MISS):         0 
cpu0_L1I AVERAGE MISS LATENCY: 19.4399 cycles
cpu0_ITLB TOTAL       ACCESS:   29705422  HIT:   27940910  MISS:    1764512  iACCESS:   29705422  iHIT:   27940910  iMISS:    1764512  dACCESS:          0  dHIT:          0  dMISS:          0  itACCESS:          0  itHIT:          0  itMISS:          0  dtACCESS:          0  dtHIT:          0  dtMISS:          0
cpu0_ITLB LOAD         ACCESS:   29705422  HIT:   27940910  MISS:    1764512  iACCESS:   29705422  iHIT:   27940910  iMISS:    1764512  dACCESS:          0  dHIT:          0  dMISS:          0  itACCESS:          0  itHIT:          0  itMISS:          0  dtACCESS:          0  dtHIT:          0  dtMISS:          0
cpu0_ITLB RFO          ACCESS:          0  HIT:          0  MISS:          0  iACCESS:          0  iHIT:          0  iMISS:          0  dACCESS:          0  dHIT:          0  dMISS:          0  itACCESS:          0  itHIT:          0  itMISS:          0  dtACCESS:          0  dtHIT:          0  dtMISS:          0
cpu0_ITLB PREFETCH     ACCESS:          0  HIT:          0  MISS:          0  iACCESS:          0  iHIT:          0  iMISS:          0  dACCESS:          0  dHIT:          0  dMISS:          0  itACCESS:          0  itHIT:          0  itMISS:          0  dtACCESS:          0  dtHIT:          0  dtMISS:          0
cpu0_ITLB WRITE        ACCESS:          0  HIT:          0  MISS:          0  iACCESS:          0  iHIT:          0  iMISS:          0  dACCESS:          0  dHIT:          0  dMISS:          0  itACCESS:          0  itHIT:          0  itMISS:          0  dtACCESS:          0  dtHIT:          0  dtMISS:          0
cpu0_ITLB TRANSLATION  ACCESS:          0  HIT:          0  MISS:          0  iACCESS:          0  iHIT:          0  iMISS:          0  dACCESS:          0  dHIT:          0  dMISS:          0  itACCESS:          0  itHIT:          0  itMISS:          0  dtACCESS:          0  dtHIT:          0  dtMISS:          0
cpu0_ITLB PREFETCH  REQUESTED:          0  ISSUED:          0  CROSSED:          0  USEFUL:     300700  USELESS:      60488
cpu0_ITLB AVERAGE iMISS LATENCY: 4.60481 cycles
cpu0_ITLB AVERAGE dMISS LATENCY: 0 cycles
cpu0_ITLB AVERAGE itMISS LATENCY: 0 cycles
cpu0_ITLB AVERAGE dtMISS LATENCY: 0 cycles
cpu0_ITLB PAGE CROSSINGS (TLB HIT):         0 
cpu0_ITLB PAGE CROSSINGS (TLB MISS):         0 
cpu0_ITLB AVERAGE MISS LATENCY: 4.60481 cycles
cpu0_DTLB TOTAL       ACCESS:   29924995  HIT:   25672516  MISS:    4252479  iACCESS:          0  iHIT:          0  iMISS:          0  dACCESS:   29924995  dHIT:   25672516  dMISS:    4252479  itACCESS:          0  itHIT:          0  itMISS:          0  dtACCESS:          0  dtHIT:          0  dtMISS:          0
cpu0_DTLB LOAD         ACCESS:   29924995  HIT:   25672516  MISS:    4252479  iACCESS:          0  iHIT:          0  iMISS:          0  dACCESS:   29924995  dHIT:   25672516  dMISS:    4252479  itACCESS:          0  itHIT:          0  itMISS:          0  dtACCESS:          0  dtHIT:          0  dtMISS:          0
cpu0_DTLB RFO          ACCESS:          0  HIT:          0  MISS:          0  iACCESS:          0  iHIT:          0  iMISS:          0  dACCESS:          0  dHIT:          0  dMISS:          0  itACCESS:          0  itHIT:          0  itMISS:          0  dtACCESS:          0  dtHIT:          0  dtMISS:          0
cpu0_DTLB PREFETCH     ACCESS:          0  HIT:          0  MISS:          0  iACCESS:          0  iHIT:          0  iMISS:          0  dACCESS:          0  dHIT:          0  dMISS:          0  itACCESS:          0  itHIT:          0  itMISS:          0  dtACCESS:          0  dtHIT:          0  dtMISS:          0
cpu0_DTLB WRITE        ACCESS:          0  HIT:          0  MISS:          0  iACCESS:          0  iHIT:          0  iMISS:          0  dACCESS:          0  dHIT:          0  dMISS:          0  itACCESS:          0  itHIT:          0  itMISS:          0  dtACCESS:          0  dtHIT:          0  dtMISS:          0
cpu0_DTLB TRANSLATION  ACCESS:          0  HIT:          0  MISS:          0  iACCESS:          0  iHIT:          0  iMISS:          0  dACCESS:          0  dHIT:          0  dMISS:          0  itACCESS:          0  itHIT:          0  itMISS:          0  dtACCESS:          0  dtHIT:          0  dtMISS:          0
cpu0_DTLB PREFETCH  REQUESTED:          0  ISSUED:          0  CROSSED:          0  USEFUL:          0  USELESS:          0
cpu0_DTLB AVERAGE iMISS LATENCY: 0 cycles
cpu0_DTLB AVERAGE dMISS LATENCY: 7.4166 cycles
cpu0_DTLB AVERAGE itMISS LATENCY: 0 cycles
cpu0_DTLB AVERAGE dtMISS LATENCY: 0 cycles
cpu0_DTLB PAGE CROSSINGS (TLB HIT):         0 
cpu0_DTLB PAGE CROSSINGS (TLB MISS):         0 
cpu0_DTLB AVERAGE MISS LATENCY: 7.4166 cycles
cpu0_STLB TOTAL       ACCESS:    2618281  HIT:    2393212  MISS:     225069  iACCESS:     361200  iHIT:     275906  iMISS:      85294  dACCESS:    2257081  dHIT:    2117306  dMISS:     139775  itACCESS:          0  itHIT:          0  itMISS:          0  dtACCESS:          0  dtHIT:          0  dtMISS:          0
cpu0_STLB LOAD         ACCESS:    2618281  HIT:    2393212  MISS:     225069  iACCESS:     361200  iHIT:     275906  iMISS:      85294  dACCESS:    2257081  dHIT:    2117306  dMISS:     139775  itACCESS:          0  itHIT:          0  itMISS:          0  dtACCESS:          0  dtHIT:          0  dtMISS:          0
cpu0_STLB RFO          ACCESS:          0  HIT:          0  MISS:          0  iACCESS:          0  iHIT:          0  iMISS:          0  dACCESS:          0  dHIT:          0  dMISS:          0  itACCESS:          0  itHIT:          0  itMISS:          0  dtACCESS:          0  dtHIT:          0  dtMISS:          0
cpu0_STLB PREFETCH     ACCESS:          0  HIT:          0  MISS:          0  iACCESS:          0  iHIT:          0  iMISS:          0  dACCESS:          0  dHIT:          0  dMISS:          0  itACCESS:          0  itHIT:          0  itMISS:          0  dtACCESS:          0  dtHIT:          0  dtMISS:          0
cpu0_STLB WRITE        ACCESS:          0  HIT:          0  MISS:          0  iACCESS:          0  iHIT:          0  iMISS:          0  dACCESS:          0  dHIT:          0  dMISS:          0  itACCESS:          0  itHIT:          0  itMISS:          0  dtACCESS:          0  dtHIT:          0  dtMISS:          0
cpu0_STLB TRANSLATION  ACCESS:          0  HIT:          0  MISS:          0  iACCESS:          0  iHIT:          0  iMISS:          0  dACCESS:          0  dHIT:          0  dMISS:          0  itACCESS:          0  itHIT:          0  itMISS:          0  dtACCESS:          0  dtHIT:          0  dtMISS:          0
cpu0_STLB PREFETCH  REQUESTED:          0  ISSUED:          0  CROSSED:          0  USEFUL:          0  USELESS:          0
cpu0_STLB AVERAGE iMISS LATENCY: 23.2834 cycles
cpu0_STLB AVERAGE dMISS LATENCY: 59.0807 cycles
cpu0_STLB AVERAGE itMISS LATENCY: 0 cycles
cpu0_STLB AVERAGE dtMISS LATENCY: 0 cycles
cpu0_STLB PAGE CROSSINGS (TLB HIT):         0 
cpu0_STLB PAGE CROSSINGS (TLB MISS):         0 
cpu0_STLB AVERAGE MISS LATENCY: 82.3641 cycles
cpu0_L1D TOTAL       ACCESS:   46873149  HIT:   39177692  MISS:    7695457  iACCESS:          0  iHIT:          0  iMISS:          0  dACCESS:   46588204  dHIT:   39154591  dMISS:    7433613  itACCESS:      91448  itHIT:      12127  itMISS:      79321  dtACCESS:     193497  dtHIT:      10974  dtMISS:     182523
cpu0_L1D LOAD         ACCESS:   22549521  HIT:   18215020  MISS:    4334501  iACCESS:          0  iHIT:          0  iMISS:          0  dACCESS:   22549521  dHIT:   18215020  dMISS:    4334501  itACCESS:          0  itHIT:          0  itMISS:          0  dtACCESS:          0  dtHIT:          0  dtMISS:          0
cpu0_L1D RFO          ACCESS:          0  HIT:          0  MISS:          0  iACCESS:          0  iHIT:          0  iMISS:          0  dACCESS:          0  dHIT:          0  dMISS:          0  itACCESS:          0  itHIT:          0  itMISS:          0  dtACCESS:          0  dtHIT:          0  dtMISS:          0
cpu0_L1D PREFETCH     ACCESS:   14221954  HIT:   11574465  MISS:    2647489  iACCESS:          0  iHIT:          0  iMISS:          0  dACCESS:   14221954  dHIT:   11574465  dMISS:    2647489  itACCESS:          0  itHIT:          0  itMISS:          0  dtACCESS:          0  dtHIT:          0  dtMISS:          0
cpu0_L1D WRITE        ACCESS:    9816729  HIT:    9365106  MISS:     451623  iACCESS:          0  iHIT:          0  iMISS:          0  dACCESS:    9816729  dHIT:    9365106  dMISS:     451623  itACCESS:          0  itHIT:          0  itMISS:          0  dtACCESS:          0  dtHIT:          0  dtMISS:          0
cpu0_L1D TRANSLATION  ACCESS:     284945  HIT:      23101  MISS:     261844  iACCESS:          0  iHIT:          0  iMISS:          0  dACCESS:          0  dHIT:          0  dMISS:          0  itACCESS:      91448  itHIT:      12127  itMISS:      79321  dtACCESS:     193497  dtHIT:      10974  dtMISS:     182523
cpu0_L1D PREFETCH  REQUESTED:   22549521  ISSUED:   17782842  CROSSED:          0  USEFUL:     282274  USELESS:     751288
cpu0_L1D AVERAGE iMISS LATENCY: 0 cycles
cpu0_L1D AVERAGE dMISS LATENCY: 25.6144 cycles
cpu0_L1D AVERAGE itMISS LATENCY: 0.585679 cycles
cpu0_L1D AVERAGE dtMISS LATENCY: 1.49448 cycles
cpu0_L1D PAGE CROSSINGS (TLB HIT):         0 
cpu0_L1D PAGE CROSSINGS (TLB MISS):         0 
cpu0_L1D AVERAGE MISS LATENCY: 27.6946 cycles
cpu0_L2C TOTAL       ACCESS:    8500772  HIT:    2312406  MISS:    6188366  iACCESS:    3092512  iHIT:     766725  iMISS:    2325787  dACCESS:    5153508  dHIT:    1395213  dMISS:    3758295  itACCESS:      79321  itHIT:      52188  itMISS:      27133  dtACCESS:     175431  dtHIT:      98280  dtMISS:      77151
cpu0_L2C LOAD         ACCESS:    3257843  HIT:     982328  MISS:    2275515  iACCESS:     706820  iHIT:     128485  iMISS:     578335  dACCESS:    2551023  dHIT:     853843  dMISS:    1697180  itACCESS:          0  itHIT:          0  itMISS:          0  dtACCESS:          0  dtHIT:          0  dtMISS:          0
cpu0_L2C RFO          ACCESS:     172316  HIT:      39378  MISS:     132938  iACCESS:          0  iHIT:          0  iMISS:          0  dACCESS:     172316  dHIT:      39378  dMISS:     132938  itACCESS:          0  itHIT:          0  itMISS:          0  dtACCESS:          0  dtHIT:          0  dtMISS:          0
cpu0_L2C PREFETCH     ACCESS:    4561726  HIT:    1032876  MISS:    3528850  iACCESS:    2385692  iHIT:     638240  iMISS:    1747452  dACCESS:    2176034  dHIT:     394636  dMISS:    1781398  itACCESS:          0  itHIT:          0  itMISS:          0  dtACCESS:          0  dtHIT:          0  dtMISS:          0
cpu0_L2C WRITE        ACCESS:     254135  HIT:     107356  MISS:     146779  iACCESS:          0  iHIT:          0  iMISS:          0  dACCESS:     254135  dHIT:     107356  dMISS:     146779  itACCESS:          0  itHIT:          0  itMISS:          0  dtACCESS:          0  dtHIT:          0  dtMISS:          0
cpu0_L2C TRANSLATION  ACCESS:     254752  HIT:     150468  MISS:     104284  iACCESS:          0  iHIT:          0  iMISS:          0  dACCESS:          0  dHIT:          0  dMISS:          0  itACCESS:      79321  itHIT:      52188  itMISS:      27133  dtACCESS:     175431  dtHIT:      98280  dtMISS:      77151
cpu0_L2C PREFETCH  REQUESTED:    1374970  ISSUED:    1374959  CROSSED:          0  USEFUL:     375682  USELESS:     385857
cpu0_L2C AVERAGE iMISS LATENCY: 19.4043 cycles
cpu0_L2C AVERAGE dMISS LATENCY: 35.5646 cycles
cpu0_L2C AVERAGE itMISS LATENCY: 0.608297 cycles
cpu0_L2C AVERAGE dtMISS LATENCY: 1.58981 cycles
cpu0_L2C PAGE CROSSINGS (TLB HIT):         0 
cpu0_L2C PAGE CROSSINGS (TLB MISS):         0 
cpu0_L2C AVERAGE MISS LATENCY: 57.167 cycles
LLC TOTAL       ACCESS:    6021175  HIT:    4487848  MISS:    1533327  iACCESS:    2254897  iHIT:    1729644  iMISS:     525253  dACCESS:    3661994  dHIT:    2717196  dMISS:     944798  itACCESS:      27133  itHIT:       8785  itMISS:      18348  dtACCESS:      77151  dtHIT:      32223  dtMISS:      44928
LLC LOAD         ACCESS:    2268750  HIT:    1920209  MISS:     348541  iACCESS:     577170  iHIT:     471298  iMISS:     105872  dACCESS:    1691580  dHIT:    1448911  dMISS:     242669  itACCESS:          0  itHIT:          0  itMISS:          0  dtACCESS:          0  dtHIT:          0  dtMISS:          0
LLC RFO          ACCESS:     132922  HIT:      77267  MISS:      55655  iACCESS:          0  iHIT:          0  iMISS:          0  dACCESS:     132922  dHIT:      77267  dMISS:      55655  itACCESS:          0  itHIT:          0  itMISS:          0  dtACCESS:          0  dtHIT:          0  dtMISS:          0
LLC PREFETCH     ACCESS:    3363862  HIT:    2307437  MISS:    1056425  iACCESS:    1677727  iHIT:    1258346  iMISS:     419381  dACCESS:    1686135  dHIT:    1049091  dMISS:     637044  itACCESS:          0  itHIT:          0  itMISS:          0  dtACCESS:          0  dtHIT:          0  dtMISS:          0
LLC WRITE        ACCESS:     151357  HIT:     141927  MISS:       9430  iACCESS:          0  iHIT:          0  iMISS:          0  dACCESS:     151357  dHIT:     141927  dMISS:       9430  itACCESS:          0  itHIT:          0  itMISS:          0  dtACCESS:          0  dtHIT:          0  dtMISS:          0
LLC TRANSLATION  ACCESS:     104284  HIT:      41008  MISS:      63276  iACCESS:          0  iHIT:          0  iMISS:          0  dACCESS:          0  dHIT:          0  dMISS:          0  itACCESS:      27133  itHIT:       8785  itMISS:      18348  dtACCESS:      77151  dtHIT:      32223  dtMISS:      44928
LLC PREFETCH  REQUESTED:          0  ISSUED:          0  CROSSED:          0  USEFUL:          0  USELESS:          0
LLC AVERAGE iMISS LATENCY: 49.8364 cycles
LLC AVERAGE dMISS LATENCY: 99.9253 cycles
LLC AVERAGE itMISS LATENCY: 2.1077 cycles
LLC AVERAGE dtMISS LATENCY: 5.43291 cycles
LLC PAGE CROSSINGS (TLB HIT):         0 
LLC PAGE CROSSINGS (TLB MISS):         0 
LLC AVERAGE MISS LATENCY: 157.303 cycles

PageTableWalker TOTAL       ACCESS:     129947  
PageTableWalker AVERAGE LATENCY: 4.33723 cycles
PageTableWalker TOTAL LATENCY: 563610 cycles

DRAM Statistics
Channel 0
 RQ ROW_BUFFER_HIT:     465078
  ROW_BUFFER_MISS:    1044394
 AVG DBUS CONGESTED CYCLE:    3.63842
 WQ ROW_BUFFER_HIT:      32537
  ROW_BUFFER_MISS:      25613  FULL:          0

