last_page:0x200000000000000
VMEM_RES_CAP:0x100000
PAGE_SIZE:4096
LOG2_PAGE_SIZE:12
LOG2_PAGE_TABLE_SIZE:9
page_table_levels:5
WARNING: physical memory size is smaller than virtual memory size
FDiP enabled with aggresivity 16

*** ChampSim Multicore Out-of-Order Simulator ***

Warmup Instructions: 50000000
Simulation Instructions: 100000000
Number of CPUs: 1
Small page size: 4096
Large page size: 2097152

CPU 0 Bimodal branch predictor
Basic BTB sets: 1024 ways: 8 indirect buffer size: 4096 RAS size: 64
Instruction page size distrubution: 0
Loading instruction page size distribution from /home/bsc/bsc018186/scratch/itp_asplos25_AE/dump/srv771_ap.pdst
Data page size distrubution: 0
Loading data page size distribution from /home/bsc/bsc018186/scratch/itp_asplos25_AE/dump/srv771_ap.pdst
cpu0_L2C IP-based stride prefetcher
cpu0_L1D next line prefetcher
cpu0_STLB using iTP with max lru@8
cpu0_STLB using iTP with instr@0 and data@2
Init sat counter with 3 bits (max:50).
cpu0_L1I next line prefetcher
Off-chip DRAM Size: 4 GiB Channels: 1 Width: 64-bit Data Rate: 3200 MT/s
Heartbeat CPU 0 instructions: 10000003 cycles: 2500153 heartbeat IPC: 3.99976 cumulative IPC: 3.99976 (Simulation time: 0 hr 0 min 36 sec) 
Heartbeat CPU 0 instructions: 20000003 cycles: 5000185 heartbeat IPC: 3.99995 cumulative IPC: 3.99986 (Simulation time: 0 hr 1 min 14 sec) 
Heartbeat CPU 0 instructions: 30000003 cycles: 7500235 heartbeat IPC: 3.99993 cumulative IPC: 3.99988 (Simulation time: 0 hr 1 min 53 sec) 
Heartbeat CPU 0 instructions: 40000003 cycles: 10000239 heartbeat IPC: 4 cumulative IPC: 3.99991 (Simulation time: 0 hr 2 min 32 sec) 
Heartbeat CPU 0 instructions: 50000000 cycles: 12500317 heartbeat IPC: 3.99988 cumulative IPC: 3.9999 (Simulation time: 0 hr 3 min 11 sec) 
Warmup finished CPU 0 instructions: 50000000 cycles: 12500318 cumulative IPC: 3.9999 (Simulation time: 0 hr 3 min 11 sec) 

Warmup complete CPU 0 instructions: 50000000 cycles: 12500318 (Simulation time: 0 hr 3 min 11 sec) 

Heartbeat CPU 0 instructions: 60000000 cycles: 30291575 heartbeat IPC: 0.562074 cumulative IPC: 0.562074 (Simulation time: 0 hr 4 min 18 sec) 
Heartbeat CPU 0 instructions: 70000004 cycles: 49156660 heartbeat IPC: 0.53008 cumulative IPC: 0.545609 (Simulation time: 0 hr 5 min 25 sec) 
Heartbeat CPU 0 instructions: 80000000 cycles: 67011176 heartbeat IPC: 0.560083 cumulative IPC: 0.55035 (Simulation time: 0 hr 6 min 31 sec) 
Heartbeat CPU 0 instructions: 90000002 cycles: 85339730 heartbeat IPC: 0.545597 cumulative IPC: 0.549154 (Simulation time: 0 hr 7 min 38 sec) 
Heartbeat CPU 0 instructions: 100000002 cycles: 103680415 heartbeat IPC: 0.545236 cumulative IPC: 0.548366 (Simulation time: 0 hr 8 min 44 sec) 
*** Reached end of trace: /gpfs/projects/bsc18/MN4/bsc18/romol/ChampSim/traces/qualcomm_srv/srv771_ap.champsimtrace.xz
Heartbeat CPU 0 instructions: 110000000 cycles: 121594960 heartbeat IPC: 0.558206 cumulative IPC: 0.549982 (Simulation time: 0 hr 9 min 51 sec) 
Heartbeat CPU 0 instructions: 120000000 cycles: 139564445 heartbeat IPC: 0.556499 cumulative IPC: 0.550903 (Simulation time: 0 hr 10 min 56 sec) 
Heartbeat CPU 0 instructions: 130000001 cycles: 157384493 heartbeat IPC: 0.561166 cumulative IPC: 0.552166 (Simulation time: 0 hr 12 min 3 sec) 
Heartbeat CPU 0 instructions: 140000003 cycles: 175268453 heartbeat IPC: 0.559161 cumulative IPC: 0.552934 (Simulation time: 0 hr 13 min 9 sec) 
Heartbeat CPU 0 instructions: 150000002 cycles: 194212145 heartbeat IPC: 0.527881 cumulative IPC: 0.550322 (Simulation time: 0 hr 14 min 16 sec) 
Simulation finished CPU 0 instructions: 100000002 cycles: 181711828 cumulative IPC: 0.550322 (Simulation time: 0 hr 14 min 16 sec) 

Simulation complete CPU 0 instructions: 100000002 cycles: 181711828 (Simulation time: 0 hr 14 min 16 sec) 


ChampSim completed all CPUs

Saving instructions large page distribution to /home/bsc/bsc018186/scratch/itp_asplos25_AE/dump/srv771_ap.pdst...
Saving data large page distribution to /home/bsc/bsc018186/scratch/itp_asplos25_AE/dump/srv771_ap.pdst...
=== Simulation ===
CPU 0 runs /gpfs/projects/bsc18/MN4/bsc18/romol/ChampSim/traces/qualcomm_srv/srv771_ap.champsimtrace.xz

Region of Interest Statistics

CPU 0 cumulative IPC: 0.550322 instructions: 100000002 cycles: 181711828
CPU 0 Branch Prediction Accuracy: 80.1658% MPKI: 35.8759 Average ROB Occupancy at Mispredict: 10.5499
Branch type MPKI
BRANCH_DIRECT_JUMP: 1.33592
BRANCH_INDIRECT: 18.0412
BRANCH_CONDITIONAL: 11.5983
BRANCH_DIRECT_CALL: 2.51543
BRANCH_INDIRECT_CALL: 0.66576
BRANCH_RETURN: 1.7194

Instructions large pages: 0
Instructions small pages: 6153
Large page distribution for instructions: 0%

Data large pages: 0
Data small pages: 5064
Large page distribution for data: 0%

cpu0_L1I TOTAL       ACCESS:   36419940  HIT:   28005031  MISS:    8414909  iACCESS:   36419940  iHIT:   28005031  iMISS:    8414909  dACCESS:          0  dHIT:          0  dMISS:          0  itACCESS:          0  itHIT:          0  itMISS:          0  dtACCESS:          0  dtHIT:          0  dtMISS:          0
cpu0_L1I LOAD         ACCESS:   10643530  HIT:    8336213  MISS:    2307317  iACCESS:   10643530  iHIT:    8336213  iMISS:    2307317  dACCESS:          0  dHIT:          0  dMISS:          0  itACCESS:          0  itHIT:          0  itMISS:          0  dtACCESS:          0  dtHIT:          0  dtMISS:          0
cpu0_L1I RFO          ACCESS:          0  HIT:          0  MISS:          0  iACCESS:          0  iHIT:          0  iMISS:          0  dACCESS:          0  dHIT:          0  dMISS:          0  itACCESS:          0  itHIT:          0  itMISS:          0  dtACCESS:          0  dtHIT:          0  dtMISS:          0
cpu0_L1I PREFETCH     ACCESS:   25776410  HIT:   19668818  MISS:    6107592  iACCESS:   25776410  iHIT:   19668818  iMISS:    6107592  dACCESS:          0  dHIT:          0  dMISS:          0  itACCESS:          0  itHIT:          0  itMISS:          0  dtACCESS:          0  dtHIT:          0  dtMISS:          0
cpu0_L1I WRITE        ACCESS:          0  HIT:          0  MISS:          0  iACCESS:          0  iHIT:          0  iMISS:          0  dACCESS:          0  dHIT:          0  dMISS:          0  itACCESS:          0  itHIT:          0  itMISS:          0  dtACCESS:          0  dtHIT:          0  dtMISS:          0
cpu0_L1I TRANSLATION  ACCESS:          0  HIT:          0  MISS:          0  iACCESS:          0  iHIT:          0  iMISS:          0  dACCESS:          0  dHIT:          0  dMISS:          0  itACCESS:          0  itHIT:          0  itMISS:          0  dtACCESS:          0  dtHIT:          0  dtMISS:          0
cpu0_L1I PREFETCH  REQUESTED:   28166656  ISSUED:   28165227  CROSSED:          0  USEFUL:    2016467  USELESS:     657755
cpu0_L1I AVERAGE iMISS LATENCY: 18.1769 cycles
cpu0_L1I AVERAGE dMISS LATENCY: 0 cycles
cpu0_L1I AVERAGE itMISS LATENCY: 0 cycles
cpu0_L1I AVERAGE dtMISS LATENCY: 0 cycles
cpu0_L1I PAGE CROSSINGS (TLB HIT):         0 
cpu0_L1I PAGE CROSSINGS (TLB MISS):         0 
cpu0_L1I AVERAGE MISS LATENCY: 18.1769 cycles
cpu0_ITLB TOTAL       ACCESS:   30385686  HIT:   28433832  MISS:    1951854  iACCESS:   30385686  iHIT:   28433832  iMISS:    1951854  dACCESS:          0  dHIT:          0  dMISS:          0  itACCESS:          0  itHIT:          0  itMISS:          0  dtACCESS:          0  dtHIT:          0  dtMISS:          0
cpu0_ITLB LOAD         ACCESS:   30385686  HIT:   28433832  MISS:    1951854  iACCESS:   30385686  iHIT:   28433832  iMISS:    1951854  dACCESS:          0  dHIT:          0  dMISS:          0  itACCESS:          0  itHIT:          0  itMISS:          0  dtACCESS:          0  dtHIT:          0  dtMISS:          0
cpu0_ITLB RFO          ACCESS:          0  HIT:          0  MISS:          0  iACCESS:          0  iHIT:          0  iMISS:          0  dACCESS:          0  dHIT:          0  dMISS:          0  itACCESS:          0  itHIT:          0  itMISS:          0  dtACCESS:          0  dtHIT:          0  dtMISS:          0
cpu0_ITLB PREFETCH     ACCESS:          0  HIT:          0  MISS:          0  iACCESS:          0  iHIT:          0  iMISS:          0  dACCESS:          0  dHIT:          0  dMISS:          0  itACCESS:          0  itHIT:          0  itMISS:          0  dtACCESS:          0  dtHIT:          0  dtMISS:          0
cpu0_ITLB WRITE        ACCESS:          0  HIT:          0  MISS:          0  iACCESS:          0  iHIT:          0  iMISS:          0  dACCESS:          0  dHIT:          0  dMISS:          0  itACCESS:          0  itHIT:          0  itMISS:          0  dtACCESS:          0  dtHIT:          0  dtMISS:          0
cpu0_ITLB TRANSLATION  ACCESS:          0  HIT:          0  MISS:          0  iACCESS:          0  iHIT:          0  iMISS:          0  dACCESS:          0  dHIT:          0  dMISS:          0  itACCESS:          0  itHIT:          0  itMISS:          0  dtACCESS:          0  dtHIT:          0  dtMISS:          0
cpu0_ITLB PREFETCH  REQUESTED:          0  ISSUED:          0  CROSSED:          0  USEFUL:     329191  USELESS:      66330
cpu0_ITLB AVERAGE iMISS LATENCY: 3.02776 cycles
cpu0_ITLB AVERAGE dMISS LATENCY: 0 cycles
cpu0_ITLB AVERAGE itMISS LATENCY: 0 cycles
cpu0_ITLB AVERAGE dtMISS LATENCY: 0 cycles
cpu0_ITLB PAGE CROSSINGS (TLB HIT):         0 
cpu0_ITLB PAGE CROSSINGS (TLB MISS):         0 
cpu0_ITLB AVERAGE MISS LATENCY: 3.02776 cycles
cpu0_DTLB TOTAL       ACCESS:   28005051  HIT:   26038215  MISS:    1966836  iACCESS:          0  iHIT:          0  iMISS:          0  dACCESS:   28005051  dHIT:   26038215  dMISS:    1966836  itACCESS:          0  itHIT:          0  itMISS:          0  dtACCESS:          0  dtHIT:          0  dtMISS:          0
cpu0_DTLB LOAD         ACCESS:   28005051  HIT:   26038215  MISS:    1966836  iACCESS:          0  iHIT:          0  iMISS:          0  dACCESS:   28005051  dHIT:   26038215  dMISS:    1966836  itACCESS:          0  itHIT:          0  itMISS:          0  dtACCESS:          0  dtHIT:          0  dtMISS:          0
cpu0_DTLB RFO          ACCESS:          0  HIT:          0  MISS:          0  iACCESS:          0  iHIT:          0  iMISS:          0  dACCESS:          0  dHIT:          0  dMISS:          0  itACCESS:          0  itHIT:          0  itMISS:          0  dtACCESS:          0  dtHIT:          0  dtMISS:          0
cpu0_DTLB PREFETCH     ACCESS:          0  HIT:          0  MISS:          0  iACCESS:          0  iHIT:          0  iMISS:          0  dACCESS:          0  dHIT:          0  dMISS:          0  itACCESS:          0  itHIT:          0  itMISS:          0  dtACCESS:          0  dtHIT:          0  dtMISS:          0
cpu0_DTLB WRITE        ACCESS:          0  HIT:          0  MISS:          0  iACCESS:          0  iHIT:          0  iMISS:          0  dACCESS:          0  dHIT:          0  dMISS:          0  itACCESS:          0  itHIT:          0  itMISS:          0  dtACCESS:          0  dtHIT:          0  dtMISS:          0
cpu0_DTLB TRANSLATION  ACCESS:          0  HIT:          0  MISS:          0  iACCESS:          0  iHIT:          0  iMISS:          0  dACCESS:          0  dHIT:          0  dMISS:          0  itACCESS:          0  itHIT:          0  itMISS:          0  dtACCESS:          0  dtHIT:          0  dtMISS:          0
cpu0_DTLB PREFETCH  REQUESTED:          0  ISSUED:          0  CROSSED:          0  USEFUL:          0  USELESS:          0
cpu0_DTLB AVERAGE iMISS LATENCY: 0 cycles
cpu0_DTLB AVERAGE dMISS LATENCY: 13.8454 cycles
cpu0_DTLB AVERAGE itMISS LATENCY: 0 cycles
cpu0_DTLB AVERAGE dtMISS LATENCY: 0 cycles
cpu0_DTLB PAGE CROSSINGS (TLB HIT):         0 
cpu0_DTLB PAGE CROSSINGS (TLB MISS):         0 
cpu0_DTLB AVERAGE MISS LATENCY: 13.8454 cycles
cpu0_STLB TOTAL       ACCESS:    1619053  HIT:    1410039  MISS:     209014  iACCESS:     395532  iHIT:     366705  iMISS:      28827  dACCESS:    1223521  dHIT:    1043334  dMISS:     180187  itACCESS:          0  itHIT:          0  itMISS:          0  dtACCESS:          0  dtHIT:          0  dtMISS:          0
cpu0_STLB LOAD         ACCESS:    1619053  HIT:    1410039  MISS:     209014  iACCESS:     395532  iHIT:     366705  iMISS:      28827  dACCESS:    1223521  dHIT:    1043334  dMISS:     180187  itACCESS:          0  itHIT:          0  itMISS:          0  dtACCESS:          0  dtHIT:          0  dtMISS:          0
cpu0_STLB RFO          ACCESS:          0  HIT:          0  MISS:          0  iACCESS:          0  iHIT:          0  iMISS:          0  dACCESS:          0  dHIT:          0  dMISS:          0  itACCESS:          0  itHIT:          0  itMISS:          0  dtACCESS:          0  dtHIT:          0  dtMISS:          0
cpu0_STLB PREFETCH     ACCESS:          0  HIT:          0  MISS:          0  iACCESS:          0  iHIT:          0  iMISS:          0  dACCESS:          0  dHIT:          0  dMISS:          0  itACCESS:          0  itHIT:          0  itMISS:          0  dtACCESS:          0  dtHIT:          0  dtMISS:          0
cpu0_STLB WRITE        ACCESS:          0  HIT:          0  MISS:          0  iACCESS:          0  iHIT:          0  iMISS:          0  dACCESS:          0  dHIT:          0  dMISS:          0  itACCESS:          0  itHIT:          0  itMISS:          0  dtACCESS:          0  dtHIT:          0  dtMISS:          0
cpu0_STLB TRANSLATION  ACCESS:          0  HIT:          0  MISS:          0  iACCESS:          0  iHIT:          0  iMISS:          0  dACCESS:          0  dHIT:          0  dMISS:          0  itACCESS:          0  itHIT:          0  itMISS:          0  dtACCESS:          0  dtHIT:          0  dtMISS:          0
cpu0_STLB PREFETCH  REQUESTED:          0  ISSUED:          0  CROSSED:          0  USEFUL:          0  USELESS:          0
cpu0_STLB AVERAGE iMISS LATENCY: 13.5071 cycles
cpu0_STLB AVERAGE dMISS LATENCY: 83.3554 cycles
cpu0_STLB AVERAGE itMISS LATENCY: 0 cycles
cpu0_STLB AVERAGE dtMISS LATENCY: 0 cycles
cpu0_STLB PAGE CROSSINGS (TLB HIT):         0 
cpu0_STLB PAGE CROSSINGS (TLB MISS):         0 
cpu0_STLB AVERAGE MISS LATENCY: 96.8624 cycles
cpu0_L1D TOTAL       ACCESS:   42683385  HIT:   38544688  MISS:    4138697  iACCESS:          0  iHIT:          0  iMISS:          0  dACCESS:   42396659  dHIT:   38527997  dMISS:    3868662  itACCESS:      32628  itHIT:       2866  itMISS:      29762  dtACCESS:     254098  dtHIT:      13825  dtMISS:     240273
cpu0_L1D LOAD         ACCESS:   19422846  HIT:   17653535  MISS:    1769311  iACCESS:          0  iHIT:          0  iMISS:          0  dACCESS:   19422846  dHIT:   17653535  dMISS:    1769311  itACCESS:          0  itHIT:          0  itMISS:          0  dtACCESS:          0  dtHIT:          0  dtMISS:          0
cpu0_L1D RFO          ACCESS:          0  HIT:          0  MISS:          0  iACCESS:          0  iHIT:          0  iMISS:          0  dACCESS:          0  dHIT:          0  dMISS:          0  itACCESS:          0  itHIT:          0  itMISS:          0  dtACCESS:          0  dtHIT:          0  dtMISS:          0
cpu0_L1D PREFETCH     ACCESS:   12853583  HIT:   11186204  MISS:    1667379  iACCESS:          0  iHIT:          0  iMISS:          0  dACCESS:   12853583  dHIT:   11186204  dMISS:    1667379  itACCESS:          0  itHIT:          0  itMISS:          0  dtACCESS:          0  dtHIT:          0  dtMISS:          0
cpu0_L1D WRITE        ACCESS:   10120230  HIT:    9688258  MISS:     431972  iACCESS:          0  iHIT:          0  iMISS:          0  dACCESS:   10120230  dHIT:    9688258  dMISS:     431972  itACCESS:          0  itHIT:          0  itMISS:          0  dtACCESS:          0  dtHIT:          0  dtMISS:          0
cpu0_L1D TRANSLATION  ACCESS:     286726  HIT:      16691  MISS:     270035  iACCESS:          0  iHIT:          0  iMISS:          0  dACCESS:          0  dHIT:          0  dMISS:          0  itACCESS:      32628  itHIT:       2866  itMISS:      29762  dtACCESS:     254098  dtHIT:      13825  dtMISS:     240273
cpu0_L1D PREFETCH  REQUESTED:   19422846  ISSUED:   17301095  CROSSED:          0  USEFUL:     313245  USELESS:     703456
cpu0_L1D AVERAGE iMISS LATENCY: 0 cycles
cpu0_L1D AVERAGE dMISS LATENCY: 38.2708 cycles
cpu0_L1D AVERAGE itMISS LATENCY: 0.611224 cycles
cpu0_L1D AVERAGE dtMISS LATENCY: 3.62345 cycles
cpu0_L1D PAGE CROSSINGS (TLB HIT):         0 
cpu0_L1D PAGE CROSSINGS (TLB MISS):         0 
cpu0_L1D AVERAGE MISS LATENCY: 42.5055 cycles
cpu0_L2C TOTAL       ACCESS:    7331497  HIT:    1660032  MISS:    5671465  iACCESS:    3412345  iHIT:     876903  iMISS:    2535442  dACCESS:    3659648  dHIT:     642930  dMISS:    3016718  itACCESS:      29762  itHIT:      14712  itMISS:      15050  dtACCESS:     229742  dtHIT:     125487  dtMISS:     104255
cpu0_L2C LOAD         ACCESS:    1727711  HIT:     263018  MISS:    1464693  iACCESS:     776125  iHIT:     136851  iMISS:     639274  dACCESS:     951586  dHIT:     126167  dMISS:     825419  itACCESS:          0  itHIT:          0  itMISS:          0  dtACCESS:          0  dtHIT:          0  dtMISS:          0
cpu0_L2C RFO          ACCESS:     161301  HIT:      44255  MISS:     117046  iACCESS:          0  iHIT:          0  iMISS:          0  dACCESS:     161301  dHIT:      44255  dMISS:     117046  itACCESS:          0  itHIT:          0  itMISS:          0  dtACCESS:          0  dtHIT:          0  dtMISS:          0
cpu0_L2C PREFETCH     ACCESS:    4908969  HIT:    1093396  MISS:    3815573  iACCESS:    2636220  iHIT:     740052  iMISS:    1896168  dACCESS:    2272749  dHIT:     353344  dMISS:    1919405  itACCESS:          0  itHIT:          0  itMISS:          0  dtACCESS:          0  dtHIT:          0  dtMISS:          0
cpu0_L2C WRITE        ACCESS:     274012  HIT:     119164  MISS:     154848  iACCESS:          0  iHIT:          0  iMISS:          0  dACCESS:     274012  dHIT:     119164  dMISS:     154848  itACCESS:          0  itHIT:          0  itMISS:          0  dtACCESS:          0  dtHIT:          0  dtMISS:          0
cpu0_L2C TRANSLATION  ACCESS:     259504  HIT:     140199  MISS:     119305  iACCESS:          0  iHIT:          0  iMISS:          0  dACCESS:          0  dHIT:          0  dMISS:          0  itACCESS:      29762  itHIT:      14712  itMISS:      15050  dtACCESS:     229742  dtHIT:     125487  dtMISS:     104255
cpu0_L2C PREFETCH  REQUESTED:    1527026  ISSUED:    1526866  CROSSED:          0  USEFUL:     436624  USELESS:     425387
cpu0_L2C AVERAGE iMISS LATENCY: 21.5795 cycles
cpu0_L2C AVERAGE dMISS LATENCY: 35.0578 cycles
cpu0_L2C AVERAGE itMISS LATENCY: 0.395976 cycles
cpu0_L2C AVERAGE dtMISS LATENCY: 2.25948 cycles
cpu0_L2C PAGE CROSSINGS (TLB HIT):         0 
cpu0_L2C PAGE CROSSINGS (TLB MISS):         0 
cpu0_L2C AVERAGE MISS LATENCY: 59.2927 cycles
LLC TOTAL       ACCESS:    5485741  HIT:    3991017  MISS:    1494724  iACCESS:    2459822  iHIT:    1943962  iMISS:     515860  dACCESS:    2906614  dHIT:    1998180  dMISS:     908434  itACCESS:      15050  itHIT:       3898  itMISS:      11152  dtACCESS:     104255  dtHIT:      44977  dtMISS:      59278
LLC LOAD         ACCESS:    1458316  HIT:    1126302  MISS:     332014  iACCESS:     638045  iHIT:     529708  iMISS:     108337  dACCESS:     820271  dHIT:     596594  dMISS:     223677  itACCESS:          0  itHIT:          0  itMISS:          0  dtACCESS:          0  dtHIT:          0  dtMISS:          0
LLC RFO          ACCESS:     116999  HIT:      67256  MISS:      49743  iACCESS:          0  iHIT:          0  iMISS:          0  dACCESS:     116999  dHIT:      67256  dMISS:      49743  itACCESS:          0  itHIT:          0  itMISS:          0  dtACCESS:          0  dtHIT:          0  dtMISS:          0
LLC PREFETCH     ACCESS:    3642504  HIT:    2611298  MISS:    1031206  iACCESS:    1821777  iHIT:    1414254  iMISS:     407523  dACCESS:    1820727  dHIT:    1197044  dMISS:     623683  itACCESS:          0  itHIT:          0  itMISS:          0  dtACCESS:          0  dtHIT:          0  dtMISS:          0
LLC WRITE        ACCESS:     148617  HIT:     137286  MISS:      11331  iACCESS:          0  iHIT:          0  iMISS:          0  dACCESS:     148617  dHIT:     137286  dMISS:      11331  itACCESS:          0  itHIT:          0  itMISS:          0  dtACCESS:          0  dtHIT:          0  dtMISS:          0
LLC TRANSLATION  ACCESS:     119305  HIT:      48875  MISS:      70430  iACCESS:          0  iHIT:          0  iMISS:          0  dACCESS:          0  dHIT:          0  dMISS:          0  itACCESS:      15050  itHIT:       3898  itMISS:      11152  dtACCESS:     104255  dtHIT:      44977  dtMISS:      59278
LLC PREFETCH  REQUESTED:          0  ISSUED:          0  CROSSED:          0  USEFUL:          0  USELESS:          0
LLC AVERAGE iMISS LATENCY: 50.0366 cycles
LLC AVERAGE dMISS LATENCY: 98.3241 cycles
LLC AVERAGE itMISS LATENCY: 1.30425 cycles
LLC AVERAGE dtMISS LATENCY: 7.2096 cycles
LLC PAGE CROSSINGS (TLB HIT):         0 
LLC PAGE CROSSINGS (TLB MISS):         0 
LLC AVERAGE MISS LATENCY: 156.875 cycles

PageTableWalker TOTAL       ACCESS:      98914  
PageTableWalker AVERAGE LATENCY: 4.44854 cycles
PageTableWalker TOTAL LATENCY: 440022 cycles

DRAM Statistics
Channel 0
 RQ ROW_BUFFER_HIT:     451392
  ROW_BUFFER_MISS:    1020028
 AVG DBUS CONGESTED CYCLE:    3.63991
 WQ ROW_BUFFER_HIT:      29250
  ROW_BUFFER_MISS:      24651  FULL:          0

