last_page:0x200000000000000
VMEM_RES_CAP:0x100000
PAGE_SIZE:4096
LOG2_PAGE_SIZE:12
LOG2_PAGE_TABLE_SIZE:9
page_table_levels:5
WARNING: physical memory size is smaller than virtual memory size
FDiP enabled with aggresivity 16

*** ChampSim Multicore Out-of-Order Simulator ***

Warmup Instructions: 50000000
Simulation Instructions: 100000000
Number of CPUs: 1
Small page size: 4096
Large page size: 2097152

CPU 0 Bimodal branch predictor
Basic BTB sets: 1024 ways: 8 indirect buffer size: 4096 RAS size: 64
Instruction page size distrubution: 0
Loading instruction page size distribution from /home/bsc/bsc018186/scratch/itp_asplos25_AE/dump/srv73_ap.pdst
Data page size distrubution: 0
Loading data page size distribution from /home/bsc/bsc018186/scratch/itp_asplos25_AE/dump/srv73_ap.pdst
cpu0_L2C IP-based stride prefetcher
cpu0_L1D next line prefetcher
cpu0_STLB using iTP with max lru@8
cpu0_STLB using iTP with instr@0 and data@2
Init sat counter with 3 bits (max:50).
cpu0_L1I next line prefetcher
Off-chip DRAM Size: 4 GiB Channels: 1 Width: 64-bit Data Rate: 3200 MT/s
Heartbeat CPU 0 instructions: 10000000 cycles: 2500136 heartbeat IPC: 3.99979 cumulative IPC: 3.99979 (Simulation time: 0 hr 0 min 43 sec) 
Heartbeat CPU 0 instructions: 20000000 cycles: 5000200 heartbeat IPC: 3.9999 cumulative IPC: 3.99985 (Simulation time: 0 hr 1 min 29 sec) 
Heartbeat CPU 0 instructions: 30000001 cycles: 7507754 heartbeat IPC: 3.98796 cumulative IPC: 3.99587 (Simulation time: 0 hr 2 min 14 sec) 
Heartbeat CPU 0 instructions: 40000000 cycles: 10015001 heartbeat IPC: 3.98844 cumulative IPC: 3.99401 (Simulation time: 0 hr 2 min 57 sec) 
Heartbeat CPU 0 instructions: 50000003 cycles: 12517491 heartbeat IPC: 3.99603 cumulative IPC: 3.99442 (Simulation time: 0 hr 3 min 42 sec) 
Warmup finished CPU 0 instructions: 50000003 cycles: 12517492 cumulative IPC: 3.99442 (Simulation time: 0 hr 3 min 42 sec) 

Warmup complete CPU 0 instructions: 50000003 cycles: 12517492 (Simulation time: 0 hr 3 min 42 sec) 

Heartbeat CPU 0 instructions: 60000000 cycles: 32002341 heartbeat IPC: 0.51322 cumulative IPC: 0.51322 (Simulation time: 0 hr 5 min 3 sec) 
Heartbeat CPU 0 instructions: 70000002 cycles: 40766304 heartbeat IPC: 1.14104 cumulative IPC: 0.707995 (Simulation time: 0 hr 6 min 12 sec) 
Heartbeat CPU 0 instructions: 80000004 cycles: 61048281 heartbeat IPC: 0.493049 cumulative IPC: 0.618165 (Simulation time: 0 hr 7 min 39 sec) 
Heartbeat CPU 0 instructions: 90000001 cycles: 80907074 heartbeat IPC: 0.503556 cumulative IPC: 0.584885 (Simulation time: 0 hr 9 min 5 sec) 
Heartbeat CPU 0 instructions: 100000000 cycles: 101060536 heartbeat IPC: 0.496193 cumulative IPC: 0.564698 (Simulation time: 0 hr 10 min 32 sec) 
*** Reached end of trace: /gpfs/projects/bsc18/MN4/bsc18/romol/ChampSim/traces/qualcomm_srv/srv73_ap.champsimtrace.xz
Heartbeat CPU 0 instructions: 110000001 cycles: 121068765 heartbeat IPC: 0.499795 cumulative IPC: 0.552735 (Simulation time: 0 hr 11 min 53 sec) 
Heartbeat CPU 0 instructions: 120000002 cycles: 141218497 heartbeat IPC: 0.496285 cumulative IPC: 0.543897 (Simulation time: 0 hr 13 min 6 sec) 
Heartbeat CPU 0 instructions: 130000000 cycles: 156840222 heartbeat IPC: 0.640135 cumulative IPC: 0.554314 (Simulation time: 0 hr 14 min 10 sec) 
Heartbeat CPU 0 instructions: 140000000 cycles: 166812739 heartbeat IPC: 1.00276 cumulative IPC: 0.583298 (Simulation time: 0 hr 15 min 4 sec) 
Heartbeat CPU 0 instructions: 150000004 cycles: 186004443 heartbeat IPC: 0.521059 cumulative IPC: 0.576413 (Simulation time: 0 hr 16 min 12 sec) 
Simulation finished CPU 0 instructions: 100000001 cycles: 173486952 cumulative IPC: 0.576413 (Simulation time: 0 hr 16 min 12 sec) 

Simulation complete CPU 0 instructions: 100000001 cycles: 173486952 (Simulation time: 0 hr 16 min 12 sec) 


ChampSim completed all CPUs

Saving instructions large page distribution to /home/bsc/bsc018186/scratch/itp_asplos25_AE/dump/srv73_ap.pdst...
Saving data large page distribution to /home/bsc/bsc018186/scratch/itp_asplos25_AE/dump/srv73_ap.pdst...
=== Simulation ===
CPU 0 runs /gpfs/projects/bsc18/MN4/bsc18/romol/ChampSim/traces/qualcomm_srv/srv73_ap.champsimtrace.xz

Region of Interest Statistics

CPU 0 cumulative IPC: 0.576413 instructions: 100000001 cycles: 173486952
CPU 0 Branch Prediction Accuracy: 82.7501% MPKI: 33.8556 Average ROB Occupancy at Mispredict: 11.6244
Branch type MPKI
BRANCH_DIRECT_JUMP: 1.01076
BRANCH_INDIRECT: 16.971
BRANCH_CONDITIONAL: 11.2404
BRANCH_DIRECT_CALL: 1.82837
BRANCH_INDIRECT_CALL: 1.46524
BRANCH_RETURN: 1.33985

Instructions large pages: 0
Instructions small pages: 1671
Large page distribution for instructions: 0%

Data large pages: 0
Data small pages: 5667
Large page distribution for data: 0%

cpu0_L1I TOTAL       ACCESS:   32735561  HIT:   25959006  MISS:    6776555  iACCESS:   32735561  iHIT:   25959006  iMISS:    6776555  dACCESS:          0  dHIT:          0  dMISS:          0  itACCESS:          0  itHIT:          0  itMISS:          0  dtACCESS:          0  dtHIT:          0  dtMISS:          0
cpu0_L1I LOAD         ACCESS:    8040353  HIT:    6153699  MISS:    1886654  iACCESS:    8040353  iHIT:    6153699  iMISS:    1886654  dACCESS:          0  dHIT:          0  dMISS:          0  itACCESS:          0  itHIT:          0  itMISS:          0  dtACCESS:          0  dtHIT:          0  dtMISS:          0
cpu0_L1I RFO          ACCESS:          0  HIT:          0  MISS:          0  iACCESS:          0  iHIT:          0  iMISS:          0  dACCESS:          0  dHIT:          0  dMISS:          0  itACCESS:          0  itHIT:          0  itMISS:          0  dtACCESS:          0  dtHIT:          0  dtMISS:          0
cpu0_L1I PREFETCH     ACCESS:   24695208  HIT:   19805307  MISS:    4889901  iACCESS:   24695208  iHIT:   19805307  iMISS:    4889901  dACCESS:          0  dHIT:          0  dMISS:          0  itACCESS:          0  itHIT:          0  itMISS:          0  dtACCESS:          0  dtHIT:          0  dtMISS:          0
cpu0_L1I WRITE        ACCESS:          0  HIT:          0  MISS:          0  iACCESS:          0  iHIT:          0  iMISS:          0  dACCESS:          0  dHIT:          0  dMISS:          0  itACCESS:          0  itHIT:          0  itMISS:          0  dtACCESS:          0  dtHIT:          0  dtMISS:          0
cpu0_L1I TRANSLATION  ACCESS:          0  HIT:          0  MISS:          0  iACCESS:          0  iHIT:          0  iMISS:          0  dACCESS:          0  dHIT:          0  dMISS:          0  itACCESS:          0  itHIT:          0  itMISS:          0  dtACCESS:          0  dtHIT:          0  dtMISS:          0
cpu0_L1I PREFETCH  REQUESTED:   26257851  ISSUED:   26256388  CROSSED:          0  USEFUL:    1558356  USELESS:     567596
cpu0_L1I AVERAGE iMISS LATENCY: 19.8928 cycles
cpu0_L1I AVERAGE dMISS LATENCY: 0 cycles
cpu0_L1I AVERAGE itMISS LATENCY: 0 cycles
cpu0_L1I AVERAGE dtMISS LATENCY: 0 cycles
cpu0_L1I PAGE CROSSINGS (TLB HIT):         0 
cpu0_L1I PAGE CROSSINGS (TLB MISS):         0 
cpu0_L1I AVERAGE MISS LATENCY: 19.8928 cycles
cpu0_ITLB TOTAL       ACCESS:   27795635  HIT:   26227969  MISS:    1567666  iACCESS:   27795635  iHIT:   26227969  iMISS:    1567666  dACCESS:          0  dHIT:          0  dMISS:          0  itACCESS:          0  itHIT:          0  itMISS:          0  dtACCESS:          0  dtHIT:          0  dtMISS:          0
cpu0_ITLB LOAD         ACCESS:   27795635  HIT:   26227969  MISS:    1567666  iACCESS:   27795635  iHIT:   26227969  iMISS:    1567666  dACCESS:          0  dHIT:          0  dMISS:          0  itACCESS:          0  itHIT:          0  itMISS:          0  dtACCESS:          0  dtHIT:          0  dtMISS:          0
cpu0_ITLB RFO          ACCESS:          0  HIT:          0  MISS:          0  iACCESS:          0  iHIT:          0  iMISS:          0  dACCESS:          0  dHIT:          0  dMISS:          0  itACCESS:          0  itHIT:          0  itMISS:          0  dtACCESS:          0  dtHIT:          0  dtMISS:          0
cpu0_ITLB PREFETCH     ACCESS:          0  HIT:          0  MISS:          0  iACCESS:          0  iHIT:          0  iMISS:          0  dACCESS:          0  dHIT:          0  dMISS:          0  itACCESS:          0  itHIT:          0  itMISS:          0  dtACCESS:          0  dtHIT:          0  dtMISS:          0
cpu0_ITLB WRITE        ACCESS:          0  HIT:          0  MISS:          0  iACCESS:          0  iHIT:          0  iMISS:          0  dACCESS:          0  dHIT:          0  dMISS:          0  itACCESS:          0  itHIT:          0  itMISS:          0  dtACCESS:          0  dtHIT:          0  dtMISS:          0
cpu0_ITLB TRANSLATION  ACCESS:          0  HIT:          0  MISS:          0  iACCESS:          0  iHIT:          0  iMISS:          0  dACCESS:          0  dHIT:          0  dMISS:          0  itACCESS:          0  itHIT:          0  itMISS:          0  dtACCESS:          0  dtHIT:          0  dtMISS:          0
cpu0_ITLB PREFETCH  REQUESTED:          0  ISSUED:          0  CROSSED:          0  USEFUL:     268685  USELESS:      52666
cpu0_ITLB AVERAGE iMISS LATENCY: 3.31 cycles
cpu0_ITLB AVERAGE dMISS LATENCY: 0 cycles
cpu0_ITLB AVERAGE itMISS LATENCY: 0 cycles
cpu0_ITLB AVERAGE dtMISS LATENCY: 0 cycles
cpu0_ITLB PAGE CROSSINGS (TLB HIT):         0 
cpu0_ITLB PAGE CROSSINGS (TLB MISS):         0 
cpu0_ITLB AVERAGE MISS LATENCY: 3.31 cycles
cpu0_DTLB TOTAL       ACCESS:   30956510  HIT:   27263897  MISS:    3692613  iACCESS:          0  iHIT:          0  iMISS:          0  dACCESS:   30956510  dHIT:   27263897  dMISS:    3692613  itACCESS:          0  itHIT:          0  itMISS:          0  dtACCESS:          0  dtHIT:          0  dtMISS:          0
cpu0_DTLB LOAD         ACCESS:   30956510  HIT:   27263897  MISS:    3692613  iACCESS:          0  iHIT:          0  iMISS:          0  dACCESS:   30956510  dHIT:   27263897  dMISS:    3692613  itACCESS:          0  itHIT:          0  itMISS:          0  dtACCESS:          0  dtHIT:          0  dtMISS:          0
cpu0_DTLB RFO          ACCESS:          0  HIT:          0  MISS:          0  iACCESS:          0  iHIT:          0  iMISS:          0  dACCESS:          0  dHIT:          0  dMISS:          0  itACCESS:          0  itHIT:          0  itMISS:          0  dtACCESS:          0  dtHIT:          0  dtMISS:          0
cpu0_DTLB PREFETCH     ACCESS:          0  HIT:          0  MISS:          0  iACCESS:          0  iHIT:          0  iMISS:          0  dACCESS:          0  dHIT:          0  dMISS:          0  itACCESS:          0  itHIT:          0  itMISS:          0  dtACCESS:          0  dtHIT:          0  dtMISS:          0
cpu0_DTLB WRITE        ACCESS:          0  HIT:          0  MISS:          0  iACCESS:          0  iHIT:          0  iMISS:          0  dACCESS:          0  dHIT:          0  dMISS:          0  itACCESS:          0  itHIT:          0  itMISS:          0  dtACCESS:          0  dtHIT:          0  dtMISS:          0
cpu0_DTLB TRANSLATION  ACCESS:          0  HIT:          0  MISS:          0  iACCESS:          0  iHIT:          0  iMISS:          0  dACCESS:          0  dHIT:          0  dMISS:          0  itACCESS:          0  itHIT:          0  itMISS:          0  dtACCESS:          0  dtHIT:          0  dtMISS:          0
cpu0_DTLB PREFETCH  REQUESTED:          0  ISSUED:          0  CROSSED:          0  USEFUL:          0  USELESS:          0
cpu0_DTLB AVERAGE iMISS LATENCY: 0 cycles
cpu0_DTLB AVERAGE dMISS LATENCY: 8.4928 cycles
cpu0_DTLB AVERAGE itMISS LATENCY: 0 cycles
cpu0_DTLB AVERAGE dtMISS LATENCY: 0 cycles
cpu0_DTLB PAGE CROSSINGS (TLB HIT):         0 
cpu0_DTLB PAGE CROSSINGS (TLB MISS):         0 
cpu0_DTLB AVERAGE MISS LATENCY: 8.4928 cycles
cpu0_STLB TOTAL       ACCESS:    2271503  HIT:    2091635  MISS:     179868  iACCESS:     321363  iHIT:     292041  iMISS:      29322  dACCESS:    1950140  dHIT:    1799594  dMISS:     150546  itACCESS:          0  itHIT:          0  itMISS:          0  dtACCESS:          0  dtHIT:          0  dtMISS:          0
cpu0_STLB LOAD         ACCESS:    2271503  HIT:    2091635  MISS:     179868  iACCESS:     321363  iHIT:     292041  iMISS:      29322  dACCESS:    1950140  dHIT:    1799594  dMISS:     150546  itACCESS:          0  itHIT:          0  itMISS:          0  dtACCESS:          0  dtHIT:          0  dtMISS:          0
cpu0_STLB RFO          ACCESS:          0  HIT:          0  MISS:          0  iACCESS:          0  iHIT:          0  iMISS:          0  dACCESS:          0  dHIT:          0  dMISS:          0  itACCESS:          0  itHIT:          0  itMISS:          0  dtACCESS:          0  dtHIT:          0  dtMISS:          0
cpu0_STLB PREFETCH     ACCESS:          0  HIT:          0  MISS:          0  iACCESS:          0  iHIT:          0  iMISS:          0  dACCESS:          0  dHIT:          0  dMISS:          0  itACCESS:          0  itHIT:          0  itMISS:          0  dtACCESS:          0  dtHIT:          0  dtMISS:          0
cpu0_STLB WRITE        ACCESS:          0  HIT:          0  MISS:          0  iACCESS:          0  iHIT:          0  iMISS:          0  dACCESS:          0  dHIT:          0  dMISS:          0  itACCESS:          0  itHIT:          0  itMISS:          0  dtACCESS:          0  dtHIT:          0  dtMISS:          0
cpu0_STLB TRANSLATION  ACCESS:          0  HIT:          0  MISS:          0  iACCESS:          0  iHIT:          0  iMISS:          0  dACCESS:          0  dHIT:          0  dMISS:          0  itACCESS:          0  itHIT:          0  itMISS:          0  dtACCESS:          0  dtHIT:          0  dtMISS:          0
cpu0_STLB PREFETCH  REQUESTED:          0  ISSUED:          0  CROSSED:          0  USEFUL:          0  USELESS:          0
cpu0_STLB AVERAGE iMISS LATENCY: 14.8555 cycles
cpu0_STLB AVERAGE dMISS LATENCY: 86.5361 cycles
cpu0_STLB AVERAGE itMISS LATENCY: 0 cycles
cpu0_STLB AVERAGE dtMISS LATENCY: 0 cycles
cpu0_STLB PAGE CROSSINGS (TLB HIT):         0 
cpu0_STLB PAGE CROSSINGS (TLB MISS):         0 
cpu0_STLB AVERAGE MISS LATENCY: 101.392 cycles
cpu0_L1D TOTAL       ACCESS:   47940671  HIT:   41014135  MISS:    6926536  iACCESS:          0  iHIT:          0  iMISS:          0  dACCESS:   47678276  dHIT:   40997613  dMISS:    6680663  itACCESS:      38122  itHIT:       3296  itMISS:      34826  dtACCESS:     224273  dtHIT:      13226  dtMISS:     211047
cpu0_L1D LOAD         ACCESS:   23264487  HIT:   19578382  MISS:    3686105  iACCESS:          0  iHIT:          0  iMISS:          0  dACCESS:   23264487  dHIT:   19578382  dMISS:    3686105  itACCESS:          0  itHIT:          0  itMISS:          0  dtACCESS:          0  dtHIT:          0  dtMISS:          0
cpu0_L1D RFO          ACCESS:          0  HIT:          0  MISS:          0  iACCESS:          0  iHIT:          0  iMISS:          0  dACCESS:          0  dHIT:          0  dMISS:          0  itACCESS:          0  itHIT:          0  itMISS:          0  dtACCESS:          0  dtHIT:          0  dtMISS:          0
cpu0_L1D PREFETCH     ACCESS:   14516835  HIT:   12176092  MISS:    2340743  iACCESS:          0  iHIT:          0  iMISS:          0  dACCESS:   14516835  dHIT:   12176092  dMISS:    2340743  itACCESS:          0  itHIT:          0  itMISS:          0  dtACCESS:          0  dtHIT:          0  dtMISS:          0
cpu0_L1D WRITE        ACCESS:    9896954  HIT:    9243139  MISS:     653815  iACCESS:          0  iHIT:          0  iMISS:          0  dACCESS:    9896954  dHIT:    9243139  dMISS:     653815  itACCESS:          0  itHIT:          0  itMISS:          0  dtACCESS:          0  dtHIT:          0  dtMISS:          0
cpu0_L1D TRANSLATION  ACCESS:     262395  HIT:      16522  MISS:     245873  iACCESS:          0  iHIT:          0  iMISS:          0  dACCESS:          0  dHIT:          0  dMISS:          0  itACCESS:      38122  itHIT:       3296  itMISS:      34826  dtACCESS:     224273  dtHIT:      13226  dtMISS:     211047
cpu0_L1D PREFETCH  REQUESTED:   23264487  ISSUED:   18940475  CROSSED:          0  USEFUL:     290140  USELESS:     760824
cpu0_L1D AVERAGE iMISS LATENCY: 0 cycles
cpu0_L1D AVERAGE dMISS LATENCY: 27.3166 cycles
cpu0_L1D AVERAGE itMISS LATENCY: 0.339385 cycles
cpu0_L1D AVERAGE dtMISS LATENCY: 1.93621 cycles
cpu0_L1D PAGE CROSSINGS (TLB HIT):         0 
cpu0_L1D PAGE CROSSINGS (TLB MISS):         0 
cpu0_L1D AVERAGE MISS LATENCY: 29.5922 cycles
cpu0_L2C TOTAL       ACCESS:    7673286  HIT:    2223586  MISS:    5449700  iACCESS:    2735961  iHIT:     663439  iMISS:    2072522  dACCESS:    4721472  dHIT:    1445506  dMISS:    3275966  itACCESS:      29917  itHIT:      15708  itMISS:      14209  dtACCESS:     185936  dtHIT:      98933  dtMISS:      87003
cpu0_L2C LOAD         ACCESS:    2918886  HIT:    1029925  MISS:    1888961  iACCESS:     634265  iHIT:     115032  iMISS:     519233  dACCESS:    2284621  dHIT:     914893  dMISS:    1369728  itACCESS:          0  itHIT:          0  itMISS:          0  dtACCESS:          0  dtHIT:          0  dtMISS:          0
cpu0_L2C RFO          ACCESS:     185730  HIT:      34896  MISS:     150834  iACCESS:          0  iHIT:          0  iMISS:          0  dACCESS:     185730  dHIT:      34896  dMISS:     150834  itACCESS:          0  itHIT:          0  itMISS:          0  dtACCESS:          0  dtHIT:          0  dtMISS:          0
cpu0_L2C PREFETCH     ACCESS:    4096199  HIT:     932889  MISS:    3163310  iACCESS:    2101696  iHIT:     548407  iMISS:    1553289  dACCESS:    1994503  dHIT:     384482  dMISS:    1610021  itACCESS:          0  itHIT:          0  itMISS:          0  dtACCESS:          0  dtHIT:          0  dtMISS:          0
cpu0_L2C WRITE        ACCESS:     256618  HIT:     111235  MISS:     145383  iACCESS:          0  iHIT:          0  iMISS:          0  dACCESS:     256618  dHIT:     111235  dMISS:     145383  itACCESS:          0  itHIT:          0  itMISS:          0  dtACCESS:          0  dtHIT:          0  dtMISS:          0
cpu0_L2C TRANSLATION  ACCESS:     215853  HIT:     114641  MISS:     101212  iACCESS:          0  iHIT:          0  iMISS:          0  dACCESS:          0  dHIT:          0  dMISS:          0  itACCESS:      29917  itHIT:      15708  itMISS:      14209  dtACCESS:     185936  dtHIT:      98933  dtMISS:      87003
cpu0_L2C PREFETCH  REQUESTED:    1117730  ISSUED:    1117730  CROSSED:          0  USEFUL:     287463  USELESS:     343050
cpu0_L2C AVERAGE iMISS LATENCY: 20.2996 cycles
cpu0_L2C AVERAGE dMISS LATENCY: 37.9258 cycles
cpu0_L2C AVERAGE itMISS LATENCY: 0.379217 cycles
cpu0_L2C AVERAGE dtMISS LATENCY: 2.13641 cycles
cpu0_L2C PAGE CROSSINGS (TLB HIT):         0 
cpu0_L2C PAGE CROSSINGS (TLB MISS):         0 
cpu0_L2C AVERAGE MISS LATENCY: 60.741 cycles
LLC TOTAL       ACCESS:    5323136  HIT:    3883745  MISS:    1439391  iACCESS:    2015651  iHIT:    1531297  iMISS:     484354  dACCESS:    3206273  dHIT:    2313809  dMISS:     892464  itACCESS:      14209  itHIT:       3991  itMISS:      10218  dtACCESS:      87003  dtHIT:      34648  dtMISS:      52355
LLC LOAD         ACCESS:    1883148  HIT:    1551663  MISS:     331485  iACCESS:     518177  iHIT:     420267  iMISS:      97910  dACCESS:    1364971  dHIT:    1131396  dMISS:     233575  itACCESS:          0  itHIT:          0  itMISS:          0  dtACCESS:          0  dtHIT:          0  dtMISS:          0
LLC RFO          ACCESS:     150824  HIT:      85169  MISS:      65655  iACCESS:          0  iHIT:          0  iMISS:          0  dACCESS:     150824  dHIT:      85169  dMISS:      65655  itACCESS:          0  itHIT:          0  itMISS:          0  dtACCESS:          0  dtHIT:          0  dtMISS:          0
LLC PREFETCH     ACCESS:    3031557  HIT:    2062513  MISS:     969044  iACCESS:    1497474  iHIT:    1111030  iMISS:     386444  dACCESS:    1534083  dHIT:     951483  dMISS:     582600  itACCESS:          0  itHIT:          0  itMISS:          0  dtACCESS:          0  dtHIT:          0  dtMISS:          0
LLC WRITE        ACCESS:     156395  HIT:     145761  MISS:      10634  iACCESS:          0  iHIT:          0  iMISS:          0  dACCESS:     156395  dHIT:     145761  dMISS:      10634  itACCESS:          0  itHIT:          0  itMISS:          0  dtACCESS:          0  dtHIT:          0  dtMISS:          0
LLC TRANSLATION  ACCESS:     101212  HIT:      38639  MISS:      62573  iACCESS:          0  iHIT:          0  iMISS:          0  dACCESS:          0  dHIT:          0  dMISS:          0  itACCESS:      14209  itHIT:       3991  itMISS:      10218  dtACCESS:      87003  dtHIT:      34648  dtMISS:      52355
LLC PREFETCH  REQUESTED:          0  ISSUED:          0  CROSSED:          0  USEFUL:          0  USELESS:          0
LLC AVERAGE iMISS LATENCY: 49.7109 cycles
LLC AVERAGE dMISS LATENCY: 103.386 cycles
LLC AVERAGE itMISS LATENCY: 1.24166 cycles
LLC AVERAGE dtMISS LATENCY: 6.906 cycles
LLC PAGE CROSSINGS (TLB HIT):         0 
LLC PAGE CROSSINGS (TLB MISS):         0 
LLC AVERAGE MISS LATENCY: 161.244 cycles

PageTableWalker TOTAL       ACCESS:      83878  
PageTableWalker AVERAGE LATENCY: 4.79909 cycles
PageTableWalker TOTAL LATENCY: 402538 cycles

DRAM Statistics
Channel 0
 RQ ROW_BUFFER_HIT:     431211
  ROW_BUFFER_MISS:     985963
 AVG DBUS CONGESTED CYCLE:    3.65038
 WQ ROW_BUFFER_HIT:      30188
  ROW_BUFFER_MISS:      29030  FULL:          0

