last_page:0x200000000000000
VMEM_RES_CAP:0x100000
PAGE_SIZE:4096
LOG2_PAGE_SIZE:12
LOG2_PAGE_TABLE_SIZE:9
page_table_levels:5
WARNING: physical memory size is smaller than virtual memory size
FDiP enabled with aggresivity 16

*** ChampSim Multicore Out-of-Order Simulator ***

Warmup Instructions: 50000000
Simulation Instructions: 100000000
Number of CPUs: 1
Small page size: 4096
Large page size: 2097152

CPU 0 Bimodal branch predictor
Basic BTB sets: 1024 ways: 8 indirect buffer size: 4096 RAS size: 64
Instruction page size distrubution: 0
Loading instruction page size distribution from /home/bsc/bsc018186/scratch/itp_asplos25_AE/dump/srv742_ap.pdst
Data page size distrubution: 0
Loading data page size distribution from /home/bsc/bsc018186/scratch/itp_asplos25_AE/dump/srv742_ap.pdst
cpu0_L2C IP-based stride prefetcher
cpu0_L1D next line prefetcher
cpu0_L1I next line prefetcher
Off-chip DRAM Size: 4 GiB Channels: 1 Width: 64-bit Data Rate: 3200 MT/s
Heartbeat CPU 0 instructions: 10000002 cycles: 2933070 heartbeat IPC: 3.4094 cumulative IPC: 3.4094 (Simulation time: 0 hr 0 min 41 sec) 
Heartbeat CPU 0 instructions: 20000001 cycles: 5442915 heartbeat IPC: 3.98431 cumulative IPC: 3.67451 (Simulation time: 0 hr 1 min 18 sec) 
Heartbeat CPU 0 instructions: 30000000 cycles: 7943200 heartbeat IPC: 3.99955 cumulative IPC: 3.77682 (Simulation time: 0 hr 1 min 56 sec) 
Heartbeat CPU 0 instructions: 40000002 cycles: 10443911 heartbeat IPC: 3.99887 cumulative IPC: 3.82999 (Simulation time: 0 hr 2 min 34 sec) 
Heartbeat CPU 0 instructions: 50000001 cycles: 13186242 heartbeat IPC: 3.64654 cumulative IPC: 3.79184 (Simulation time: 0 hr 3 min 12 sec) 
Warmup finished CPU 0 instructions: 50000001 cycles: 13186243 cumulative IPC: 3.79184 (Simulation time: 0 hr 3 min 12 sec) 

Warmup complete CPU 0 instructions: 50000001 cycles: 13186243 (Simulation time: 0 hr 3 min 12 sec) 

Heartbeat CPU 0 instructions: 60000000 cycles: 37992558 heartbeat IPC: 0.403124 cumulative IPC: 0.403124 (Simulation time: 0 hr 4 min 25 sec) 
Heartbeat CPU 0 instructions: 70000004 cycles: 61954396 heartbeat IPC: 0.417331 cumulative IPC: 0.410104 (Simulation time: 0 hr 5 min 37 sec) 
Heartbeat CPU 0 instructions: 80000001 cycles: 77904381 heartbeat IPC: 0.62696 cumulative IPC: 0.463549 (Simulation time: 0 hr 6 min 40 sec) 
Heartbeat CPU 0 instructions: 90000004 cycles: 101098849 heartbeat IPC: 0.431138 cumulative IPC: 0.454998 (Simulation time: 0 hr 7 min 50 sec) 
Heartbeat CPU 0 instructions: 100000003 cycles: 109211541 heartbeat IPC: 1.23264 cumulative IPC: 0.520697 (Simulation time: 0 hr 8 min 35 sec) 
*** Reached end of trace: /gpfs/projects/bsc18/MN4/bsc18/romol/ChampSim/traces/qualcomm_srv/srv742_ap.champsimtrace.xz
Heartbeat CPU 0 instructions: 110000002 cycles: 122295417 heartbeat IPC: 0.7643 cumulative IPC: 0.549908 (Simulation time: 0 hr 9 min 33 sec) 
Heartbeat CPU 0 instructions: 120000003 cycles: 129656953 heartbeat IPC: 1.35842 cumulative IPC: 0.60101 (Simulation time: 0 hr 10 min 19 sec) 
Heartbeat CPU 0 instructions: 130000003 cycles: 151075783 heartbeat IPC: 0.466879 cumulative IPC: 0.580175 (Simulation time: 0 hr 11 min 27 sec) 
Heartbeat CPU 0 instructions: 140000003 cycles: 176926764 heartbeat IPC: 0.386833 cumulative IPC: 0.549651 (Simulation time: 0 hr 12 min 42 sec) 
Heartbeat CPU 0 instructions: 150000002 cycles: 195313323 heartbeat IPC: 0.543876 cumulative IPC: 0.549068 (Simulation time: 0 hr 13 min 48 sec) 
Simulation finished CPU 0 instructions: 100000001 cycles: 182127081 cumulative IPC: 0.549068 (Simulation time: 0 hr 13 min 48 sec) 

Simulation complete CPU 0 instructions: 100000001 cycles: 182127081 (Simulation time: 0 hr 13 min 48 sec) 


ChampSim completed all CPUs

Saving instructions large page distribution to /home/bsc/bsc018186/scratch/itp_asplos25_AE/dump/srv742_ap.pdst...
Saving data large page distribution to /home/bsc/bsc018186/scratch/itp_asplos25_AE/dump/srv742_ap.pdst...
=== Simulation ===
CPU 0 runs /gpfs/projects/bsc18/MN4/bsc18/romol/ChampSim/traces/qualcomm_srv/srv742_ap.champsimtrace.xz

Region of Interest Statistics

CPU 0 cumulative IPC: 0.549068 instructions: 100000001 cycles: 182127081
CPU 0 Branch Prediction Accuracy: 83.9656% MPKI: 32.2638 Average ROB Occupancy at Mispredict: 12.1843
Branch type MPKI
BRANCH_DIRECT_JUMP: 0.83198
BRANCH_INDIRECT: 16.9722
BRANCH_CONDITIONAL: 10.7476
BRANCH_DIRECT_CALL: 1.50647
BRANCH_INDIRECT_CALL: 1.05262
BRANCH_RETURN: 1.15293

Instructions large pages: 0
Instructions small pages: 1649
Large page distribution for instructions: 0%

Data large pages: 0
Data small pages: 6640
Large page distribution for data: 0%

cpu0_L1I TOTAL       ACCESS:   30004445  HIT:   24866650  MISS:    5137795  iACCESS:   30004445  iHIT:   24866650  iMISS:    5137795  dACCESS:          0  dHIT:          0  dMISS:          0  itACCESS:          0  itHIT:          0  itMISS:          0  dtACCESS:          0  dtHIT:          0  dtMISS:          0
cpu0_L1I LOAD         ACCESS:    6376985  HIT:    4941967  MISS:    1435018  iACCESS:    6376985  iHIT:    4941967  iMISS:    1435018  dACCESS:          0  dHIT:          0  dMISS:          0  itACCESS:          0  itHIT:          0  itMISS:          0  dtACCESS:          0  dtHIT:          0  dtMISS:          0
cpu0_L1I RFO          ACCESS:          0  HIT:          0  MISS:          0  iACCESS:          0  iHIT:          0  iMISS:          0  dACCESS:          0  dHIT:          0  dMISS:          0  itACCESS:          0  itHIT:          0  itMISS:          0  dtACCESS:          0  dtHIT:          0  dtMISS:          0
cpu0_L1I PREFETCH     ACCESS:   23627460  HIT:   19924683  MISS:    3702777  iACCESS:   23627460  iHIT:   19924683  iMISS:    3702777  dACCESS:          0  dHIT:          0  dMISS:          0  itACCESS:          0  itHIT:          0  itMISS:          0  dtACCESS:          0  dtHIT:          0  dtMISS:          0
cpu0_L1I WRITE        ACCESS:          0  HIT:          0  MISS:          0  iACCESS:          0  iHIT:          0  iMISS:          0  dACCESS:          0  dHIT:          0  dMISS:          0  itACCESS:          0  itHIT:          0  itMISS:          0  dtACCESS:          0  dtHIT:          0  dtMISS:          0
cpu0_L1I TRANSLATION  ACCESS:          0  HIT:          0  MISS:          0  iACCESS:          0  iHIT:          0  iMISS:          0  dACCESS:          0  dHIT:          0  dMISS:          0  itACCESS:          0  itHIT:          0  itMISS:          0  dtACCESS:          0  dtHIT:          0  dtMISS:          0
cpu0_L1I PREFETCH  REQUESTED:   24967787  ISSUED:   24967493  CROSSED:          0  USEFUL:    1263607  USELESS:     480167
cpu0_L1I AVERAGE iMISS LATENCY: 22.2635 cycles
cpu0_L1I AVERAGE dMISS LATENCY: 0 cycles
cpu0_L1I AVERAGE itMISS LATENCY: 0 cycles
cpu0_L1I AVERAGE dtMISS LATENCY: 0 cycles
cpu0_L1I PAGE CROSSINGS (TLB HIT):         0 
cpu0_L1I PAGE CROSSINGS (TLB MISS):         0 
cpu0_L1I AVERAGE MISS LATENCY: 22.2635 cycles
cpu0_ITLB TOTAL       ACCESS:   25889282  HIT:   24625989  MISS:    1263293  iACCESS:   25889282  iHIT:   24625989  iMISS:    1263293  dACCESS:          0  dHIT:          0  dMISS:          0  itACCESS:          0  itHIT:          0  itMISS:          0  dtACCESS:          0  dtHIT:          0  dtMISS:          0
cpu0_ITLB LOAD         ACCESS:   25889282  HIT:   24625989  MISS:    1263293  iACCESS:   25889282  iHIT:   24625989  iMISS:    1263293  dACCESS:          0  dHIT:          0  dMISS:          0  itACCESS:          0  itHIT:          0  itMISS:          0  dtACCESS:          0  dtHIT:          0  dtMISS:          0
cpu0_ITLB RFO          ACCESS:          0  HIT:          0  MISS:          0  iACCESS:          0  iHIT:          0  iMISS:          0  dACCESS:          0  dHIT:          0  dMISS:          0  itACCESS:          0  itHIT:          0  itMISS:          0  dtACCESS:          0  dtHIT:          0  dtMISS:          0
cpu0_ITLB PREFETCH     ACCESS:          0  HIT:          0  MISS:          0  iACCESS:          0  iHIT:          0  iMISS:          0  dACCESS:          0  dHIT:          0  dMISS:          0  itACCESS:          0  itHIT:          0  itMISS:          0  dtACCESS:          0  dtHIT:          0  dtMISS:          0
cpu0_ITLB WRITE        ACCESS:          0  HIT:          0  MISS:          0  iACCESS:          0  iHIT:          0  iMISS:          0  dACCESS:          0  dHIT:          0  dMISS:          0  itACCESS:          0  itHIT:          0  itMISS:          0  dtACCESS:          0  dtHIT:          0  dtMISS:          0
cpu0_ITLB TRANSLATION  ACCESS:          0  HIT:          0  MISS:          0  iACCESS:          0  iHIT:          0  iMISS:          0  dACCESS:          0  dHIT:          0  dMISS:          0  itACCESS:          0  itHIT:          0  itMISS:          0  dtACCESS:          0  dtHIT:          0  dtMISS:          0
cpu0_ITLB PREFETCH  REQUESTED:          0  ISSUED:          0  CROSSED:          0  USEFUL:     217023  USELESS:      43296
cpu0_ITLB AVERAGE iMISS LATENCY: 8.91474 cycles
cpu0_ITLB AVERAGE dMISS LATENCY: 0 cycles
cpu0_ITLB AVERAGE itMISS LATENCY: 0 cycles
cpu0_ITLB AVERAGE dtMISS LATENCY: 0 cycles
cpu0_ITLB PAGE CROSSINGS (TLB HIT):         0 
cpu0_ITLB PAGE CROSSINGS (TLB MISS):         0 
cpu0_ITLB AVERAGE MISS LATENCY: 8.91474 cycles
cpu0_DTLB TOTAL       ACCESS:   32564504  HIT:   27271452  MISS:    5293052  iACCESS:          0  iHIT:          0  iMISS:          0  dACCESS:   32564504  dHIT:   27271452  dMISS:    5293052  itACCESS:          0  itHIT:          0  itMISS:          0  dtACCESS:          0  dtHIT:          0  dtMISS:          0
cpu0_DTLB LOAD         ACCESS:   32564504  HIT:   27271452  MISS:    5293052  iACCESS:          0  iHIT:          0  iMISS:          0  dACCESS:   32564504  dHIT:   27271452  dMISS:    5293052  itACCESS:          0  itHIT:          0  itMISS:          0  dtACCESS:          0  dtHIT:          0  dtMISS:          0
cpu0_DTLB RFO          ACCESS:          0  HIT:          0  MISS:          0  iACCESS:          0  iHIT:          0  iMISS:          0  dACCESS:          0  dHIT:          0  dMISS:          0  itACCESS:          0  itHIT:          0  itMISS:          0  dtACCESS:          0  dtHIT:          0  dtMISS:          0
cpu0_DTLB PREFETCH     ACCESS:          0  HIT:          0  MISS:          0  iACCESS:          0  iHIT:          0  iMISS:          0  dACCESS:          0  dHIT:          0  dMISS:          0  itACCESS:          0  itHIT:          0  itMISS:          0  dtACCESS:          0  dtHIT:          0  dtMISS:          0
cpu0_DTLB WRITE        ACCESS:          0  HIT:          0  MISS:          0  iACCESS:          0  iHIT:          0  iMISS:          0  dACCESS:          0  dHIT:          0  dMISS:          0  itACCESS:          0  itHIT:          0  itMISS:          0  dtACCESS:          0  dtHIT:          0  dtMISS:          0
cpu0_DTLB TRANSLATION  ACCESS:          0  HIT:          0  MISS:          0  iACCESS:          0  iHIT:          0  iMISS:          0  dACCESS:          0  dHIT:          0  dMISS:          0  itACCESS:          0  itHIT:          0  itMISS:          0  dtACCESS:          0  dtHIT:          0  dtMISS:          0
cpu0_DTLB PREFETCH  REQUESTED:          0  ISSUED:          0  CROSSED:          0  USEFUL:          0  USELESS:          0
cpu0_DTLB AVERAGE iMISS LATENCY: 0 cycles
cpu0_DTLB AVERAGE dMISS LATENCY: 9.13523 cycles
cpu0_DTLB AVERAGE itMISS LATENCY: 0 cycles
cpu0_DTLB AVERAGE dtMISS LATENCY: 0 cycles
cpu0_DTLB PAGE CROSSINGS (TLB HIT):         0 
cpu0_DTLB PAGE CROSSINGS (TLB MISS):         0 
cpu0_DTLB AVERAGE MISS LATENCY: 9.13523 cycles
cpu0_STLB TOTAL       ACCESS:    2925677  HIT:    2747179  MISS:     178498  iACCESS:     260320  iHIT:     200010  iMISS:      60310  dACCESS:    2665357  dHIT:    2547169  dMISS:     118188  itACCESS:          0  itHIT:          0  itMISS:          0  dtACCESS:          0  dtHIT:          0  dtMISS:          0
cpu0_STLB LOAD         ACCESS:    2925677  HIT:    2747179  MISS:     178498  iACCESS:     260320  iHIT:     200010  iMISS:      60310  dACCESS:    2665357  dHIT:    2547169  dMISS:     118188  itACCESS:          0  itHIT:          0  itMISS:          0  dtACCESS:          0  dtHIT:          0  dtMISS:          0
cpu0_STLB RFO          ACCESS:          0  HIT:          0  MISS:          0  iACCESS:          0  iHIT:          0  iMISS:          0  dACCESS:          0  dHIT:          0  dMISS:          0  itACCESS:          0  itHIT:          0  itMISS:          0  dtACCESS:          0  dtHIT:          0  dtMISS:          0
cpu0_STLB PREFETCH     ACCESS:          0  HIT:          0  MISS:          0  iACCESS:          0  iHIT:          0  iMISS:          0  dACCESS:          0  dHIT:          0  dMISS:          0  itACCESS:          0  itHIT:          0  itMISS:          0  dtACCESS:          0  dtHIT:          0  dtMISS:          0
cpu0_STLB WRITE        ACCESS:          0  HIT:          0  MISS:          0  iACCESS:          0  iHIT:          0  iMISS:          0  dACCESS:          0  dHIT:          0  dMISS:          0  itACCESS:          0  itHIT:          0  itMISS:          0  dtACCESS:          0  dtHIT:          0  dtMISS:          0
cpu0_STLB TRANSLATION  ACCESS:          0  HIT:          0  MISS:          0  iACCESS:          0  iHIT:          0  iMISS:          0  dACCESS:          0  dHIT:          0  dMISS:          0  itACCESS:          0  itHIT:          0  itMISS:          0  dtACCESS:          0  dtHIT:          0  dtMISS:          0
cpu0_STLB PREFETCH  REQUESTED:          0  ISSUED:          0  CROSSED:          0  USEFUL:          0  USELESS:          0
cpu0_STLB AVERAGE iMISS LATENCY: 51.4465 cycles
cpu0_STLB AVERAGE dMISS LATENCY: 149.464 cycles
cpu0_STLB AVERAGE itMISS LATENCY: 0 cycles
cpu0_STLB AVERAGE dtMISS LATENCY: 0 cycles
cpu0_STLB PAGE CROSSINGS (TLB HIT):         0 
cpu0_STLB PAGE CROSSINGS (TLB MISS):         0 
cpu0_STLB AVERAGE MISS LATENCY: 200.91 cycles
cpu0_L1D TOTAL       ACCESS:   49358064  HIT:   41642600  MISS:    7715464  iACCESS:          0  iHIT:          0  iMISS:          0  dACCESS:   49119439  dHIT:   41624407  dMISS:    7495032  itACCESS:      67425  itHIT:       8773  itMISS:      58652  dtACCESS:     171200  dtHIT:       9420  dtMISS:     161780
cpu0_L1D LOAD         ACCESS:   24945169  HIT:   20191510  MISS:    4753659  iACCESS:          0  iHIT:          0  iMISS:          0  dACCESS:   24945169  dHIT:   20191510  dMISS:    4753659  itACCESS:          0  itHIT:          0  itMISS:          0  dtACCESS:          0  dtHIT:          0  dtMISS:          0
cpu0_L1D RFO          ACCESS:          0  HIT:          0  MISS:          0  iACCESS:          0  iHIT:          0  iMISS:          0  dACCESS:          0  dHIT:          0  dMISS:          0  itACCESS:          0  itHIT:          0  itMISS:          0  dtACCESS:          0  dtHIT:          0  dtMISS:          0
cpu0_L1D PREFETCH     ACCESS:   14570587  HIT:   12374385  MISS:    2196202  iACCESS:          0  iHIT:          0  iMISS:          0  dACCESS:   14570587  dHIT:   12374385  dMISS:    2196202  itACCESS:          0  itHIT:          0  itMISS:          0  dtACCESS:          0  dtHIT:          0  dtMISS:          0
cpu0_L1D WRITE        ACCESS:    9603683  HIT:    9058512  MISS:     545171  iACCESS:          0  iHIT:          0  iMISS:          0  dACCESS:    9603683  dHIT:    9058512  dMISS:     545171  itACCESS:          0  itHIT:          0  itMISS:          0  dtACCESS:          0  dtHIT:          0  dtMISS:          0
cpu0_L1D TRANSLATION  ACCESS:     238625  HIT:      18193  MISS:     220432  iACCESS:          0  iHIT:          0  iMISS:          0  dACCESS:          0  dHIT:          0  dMISS:          0  itACCESS:      67425  itHIT:       8773  itMISS:      58652  dtACCESS:     171200  dtHIT:       9420  dtMISS:     161780
cpu0_L1D PREFETCH  REQUESTED:   24945169  ISSUED:   19295517  CROSSED:          0  USEFUL:     259733  USELESS:     804510
cpu0_L1D AVERAGE iMISS LATENCY: 0 cycles
cpu0_L1D AVERAGE dMISS LATENCY: 25.6417 cycles
cpu0_L1D AVERAGE itMISS LATENCY: 1.10988 cycles
cpu0_L1D AVERAGE dtMISS LATENCY: 3.21342 cycles
cpu0_L1D PAGE CROSSINGS (TLB HIT):         0 
cpu0_L1D PAGE CROSSINGS (TLB MISS):         0 
cpu0_L1D AVERAGE MISS LATENCY: 29.965 cycles
cpu0_L2C TOTAL       ACCESS:    8183817  HIT:    5730518  MISS:    2453299  iACCESS:    2239003  iHIT:    1411523  iMISS:     827480  dACCESS:    5745400  dHIT:    4290283  dMISS:    1455117  itACCESS:      56493  itHIT:      10477  itMISS:      46016  dtACCESS:     142921  dtHIT:      18235  dtMISS:     124686
cpu0_L2C LOAD         ACCESS:    3992311  HIT:    3385382  MISS:     606929  iACCESS:     514349  iHIT:     345062  iMISS:     169287  dACCESS:    3477962  dHIT:    3040320  dMISS:     437642  itACCESS:          0  itHIT:          0  itMISS:          0  dtACCESS:          0  dtHIT:          0  dtMISS:          0
cpu0_L2C RFO          ACCESS:     170858  HIT:      85738  MISS:      85120  iACCESS:          0  iHIT:          0  iMISS:          0  dACCESS:     170858  dHIT:      85738  dMISS:      85120  itACCESS:          0  itHIT:          0  itMISS:          0  dtACCESS:          0  dtHIT:          0  dtMISS:          0
cpu0_L2C PREFETCH     ACCESS:    3596683  HIT:    2006768  MISS:    1589915  iACCESS:    1724654  iHIT:    1066461  iMISS:     658193  dACCESS:    1872029  dHIT:     940307  dMISS:     931722  itACCESS:          0  itHIT:          0  itMISS:          0  dtACCESS:          0  dtHIT:          0  dtMISS:          0
cpu0_L2C WRITE        ACCESS:     224551  HIT:     223918  MISS:        633  iACCESS:          0  iHIT:          0  iMISS:          0  dACCESS:     224551  dHIT:     223918  dMISS:        633  itACCESS:          0  itHIT:          0  itMISS:          0  dtACCESS:          0  dtHIT:          0  dtMISS:          0
cpu0_L2C TRANSLATION  ACCESS:     199414  HIT:      28712  MISS:     170702  iACCESS:          0  iHIT:          0  iMISS:          0  dACCESS:          0  dHIT:          0  dMISS:          0  itACCESS:      56493  itHIT:      10477  itMISS:      46016  dtACCESS:     142921  dtHIT:      18235  dtMISS:     124686
cpu0_L2C PREFETCH  REQUESTED:     940646  ISSUED:     940513  CROSSED:          0  USEFUL:     199207  USELESS:     185596
cpu0_L2C AVERAGE iMISS LATENCY: 38.8376 cycles
cpu0_L2C AVERAGE dMISS LATENCY: 78.6209 cycles
cpu0_L2C AVERAGE itMISS LATENCY: 3.26379 cycles
cpu0_L2C AVERAGE dtMISS LATENCY: 9.52768 cycles
cpu0_L2C PAGE CROSSINGS (TLB HIT):         0 
cpu0_L2C PAGE CROSSINGS (TLB MISS):         0 
cpu0_L2C AVERAGE MISS LATENCY: 130.25 cycles
LLC TOTAL       ACCESS:    2458884  HIT:     798491  MISS:    1660393  iACCESS:     780642  iHIT:     253391  iMISS:     527251  dACCESS:    1507540  dHIT:     523412  dMISS:     984128  itACCESS:      46016  itHIT:       5746  itMISS:      40270  dtACCESS:     124686  dtHIT:      15942  dtMISS:     108744
LLC LOAD         ACCESS:     601378  HIT:     199618  MISS:     401760  iACCESS:     168528  iHIT:      59142  iMISS:     109386  dACCESS:     432850  dHIT:     140476  dMISS:     292374  itACCESS:          0  itHIT:          0  itMISS:          0  dtACCESS:          0  dtHIT:          0  dtMISS:          0
LLC RFO          ACCESS:      85112  HIT:      22808  MISS:      62304  iACCESS:          0  iHIT:          0  iMISS:          0  dACCESS:      85112  dHIT:      22808  dMISS:      62304  itACCESS:          0  itHIT:          0  itMISS:          0  dtACCESS:          0  dtHIT:          0  dtMISS:          0
LLC PREFETCH     ACCESS:    1477017  HIT:     435608  MISS:    1041409  iACCESS:     612114  iHIT:     194249  iMISS:     417865  dACCESS:     864903  dHIT:     241359  dMISS:     623544  itACCESS:          0  itHIT:          0  itMISS:          0  dtACCESS:          0  dtHIT:          0  dtMISS:          0
LLC WRITE        ACCESS:     124675  HIT:     118769  MISS:       5906  iACCESS:          0  iHIT:          0  iMISS:          0  dACCESS:     124675  dHIT:     118769  dMISS:       5906  itACCESS:          0  itHIT:          0  itMISS:          0  dtACCESS:          0  dtHIT:          0  dtMISS:          0
LLC TRANSLATION  ACCESS:     170702  HIT:      21688  MISS:     149014  iACCESS:          0  iHIT:          0  iMISS:          0  dACCESS:          0  dHIT:          0  dMISS:          0  itACCESS:      46016  itHIT:       5746  itMISS:      40270  dtACCESS:     124686  dtHIT:      15942  dtMISS:     108744
LLC PREFETCH  REQUESTED:          0  ISSUED:          0  CROSSED:          0  USEFUL:          0  USELESS:          0
LLC AVERAGE iMISS LATENCY: 48.1307 cycles
LLC AVERAGE dMISS LATENCY: 100.819 cycles
LLC AVERAGE itMISS LATENCY: 4.27371 cycles
LLC AVERAGE dtMISS LATENCY: 12.5947 cycles
LLC PAGE CROSSINGS (TLB HIT):         0 
LLC PAGE CROSSINGS (TLB MISS):         0 
LLC AVERAGE MISS LATENCY: 165.818 cycles

PageTableWalker TOTAL       ACCESS:      87176  
PageTableWalker AVERAGE LATENCY: 5.26647 cycles
PageTableWalker TOTAL LATENCY: 459109 cycles

DRAM Statistics
Channel 0
 RQ ROW_BUFFER_HIT:     438591
  ROW_BUFFER_MISS:    1204064
 AVG DBUS CONGESTED CYCLE:     3.6517
 WQ ROW_BUFFER_HIT:      36184
  ROW_BUFFER_MISS:      34318  FULL:          0

