last_page:0x200000000000000
VMEM_RES_CAP:0x100000
PAGE_SIZE:4096
LOG2_PAGE_SIZE:12
LOG2_PAGE_TABLE_SIZE:9
page_table_levels:5
WARNING: physical memory size is smaller than virtual memory size
FDiP enabled with aggresivity 16

*** ChampSim Multicore Out-of-Order Simulator ***

Warmup Instructions: 50000000
Simulation Instructions: 100000000
Number of CPUs: 1
Small page size: 4096
Large page size: 2097152

CPU 0 Bimodal branch predictor
Basic BTB sets: 1024 ways: 8 indirect buffer size: 4096 RAS size: 64
Instruction page size distrubution: 0
Loading instruction page size distribution from /home/bsc/bsc018186/scratch/itp_asplos25_AE/dump/srv85_ap.pdst
Data page size distrubution: 0
Loading data page size distribution from /home/bsc/bsc018186/scratch/itp_asplos25_AE/dump/srv85_ap.pdst
cpu0_L2C IP-based stride prefetcher
cpu0_L2C is using PTP replacement policy:
	TLB_STRESS_THRESHOLD:0
	PTE_EVICTION_RATIO:0
cpu0_L1D next line prefetcher
CHiRPing...
cpu0_L1I next line prefetcher
Off-chip DRAM Size: 4 GiB Channels: 1 Width: 64-bit Data Rate: 3200 MT/s
Heartbeat CPU 0 instructions: 10000001 cycles: 2500139 heartbeat IPC: 3.99978 cumulative IPC: 3.99978 (Simulation time: 0 hr 0 min 38 sec) 
Heartbeat CPU 0 instructions: 20000000 cycles: 5000185 heartbeat IPC: 3.99993 cumulative IPC: 3.99986 (Simulation time: 0 hr 1 min 18 sec) 
Heartbeat CPU 0 instructions: 30000003 cycles: 7500238 heartbeat IPC: 3.99992 cumulative IPC: 3.99988 (Simulation time: 0 hr 1 min 58 sec) 
Heartbeat CPU 0 instructions: 40000001 cycles: 10000391 heartbeat IPC: 3.99976 cumulative IPC: 3.99985 (Simulation time: 0 hr 2 min 39 sec) 
Heartbeat CPU 0 instructions: 50000000 cycles: 12500433 heartbeat IPC: 3.99994 cumulative IPC: 3.99987 (Simulation time: 0 hr 3 min 20 sec) 
Warmup finished CPU 0 instructions: 50000000 cycles: 12500434 cumulative IPC: 3.99987 (Simulation time: 0 hr 3 min 20 sec) 

Warmup complete CPU 0 instructions: 50000000 cycles: 12500434 (Simulation time: 0 hr 3 min 20 sec) 

Heartbeat CPU 0 instructions: 60000001 cycles: 31686512 heartbeat IPC: 0.521212 cumulative IPC: 0.521212 (Simulation time: 0 hr 4 min 30 sec) 
Heartbeat CPU 0 instructions: 70000002 cycles: 52631172 heartbeat IPC: 0.477449 cumulative IPC: 0.498372 (Simulation time: 0 hr 5 min 44 sec) 
Heartbeat CPU 0 instructions: 80000000 cycles: 73232793 heartbeat IPC: 0.485399 cumulative IPC: 0.493971 (Simulation time: 0 hr 6 min 56 sec) 
Heartbeat CPU 0 instructions: 90000000 cycles: 93448003 heartbeat IPC: 0.494678 cumulative IPC: 0.494148 (Simulation time: 0 hr 8 min 8 sec) 
Heartbeat CPU 0 instructions: 100000000 cycles: 114098175 heartbeat IPC: 0.484258 cumulative IPC: 0.492137 (Simulation time: 0 hr 9 min 19 sec) 
*** Reached end of trace: /gpfs/projects/bsc18/MN4/bsc18/romol/ChampSim/traces/qualcomm_srv/srv85_ap.champsimtrace.xz
Heartbeat CPU 0 instructions: 110000002 cycles: 135307585 heartbeat IPC: 0.471489 cumulative IPC: 0.488571 (Simulation time: 0 hr 10 min 29 sec) 
Heartbeat CPU 0 instructions: 120000003 cycles: 157263416 heartbeat IPC: 0.45546 cumulative IPC: 0.48355 (Simulation time: 0 hr 11 min 39 sec) 
Heartbeat CPU 0 instructions: 130000000 cycles: 179094010 heartbeat IPC: 0.458073 cumulative IPC: 0.480211 (Simulation time: 0 hr 12 min 48 sec) 
Heartbeat CPU 0 instructions: 140000004 cycles: 200532981 heartbeat IPC: 0.466441 cumulative IPC: 0.478641 (Simulation time: 0 hr 13 min 57 sec) 
Heartbeat CPU 0 instructions: 150000003 cycles: 223280395 heartbeat IPC: 0.439611 cumulative IPC: 0.474429 (Simulation time: 0 hr 15 min 8 sec) 
Simulation finished CPU 0 instructions: 100000003 cycles: 210779962 cumulative IPC: 0.474429 (Simulation time: 0 hr 15 min 8 sec) 

Simulation complete CPU 0 instructions: 100000003 cycles: 210779962 (Simulation time: 0 hr 15 min 8 sec) 


ChampSim completed all CPUs

Saving instructions large page distribution to /home/bsc/bsc018186/scratch/itp_asplos25_AE/dump/srv85_ap.pdst...
Saving data large page distribution to /home/bsc/bsc018186/scratch/itp_asplos25_AE/dump/srv85_ap.pdst...
=== Simulation ===
CPU 0 runs /gpfs/projects/bsc18/MN4/bsc18/romol/ChampSim/traces/qualcomm_srv/srv85_ap.champsimtrace.xz

Region of Interest Statistics

CPU 0 cumulative IPC: 0.474429 instructions: 100000003 cycles: 210779962
CPU 0 Branch Prediction Accuracy: 79.5287% MPKI: 36.8445 Average ROB Occupancy at Mispredict: 10.4153
Branch type MPKI
BRANCH_DIRECT_JUMP: 1.38597
BRANCH_INDIRECT: 18.9711
BRANCH_CONDITIONAL: 11.5765
BRANCH_DIRECT_CALL: 2.48226
BRANCH_INDIRECT_CALL: 0.66006
BRANCH_RETURN: 1.7687

Instructions large pages: 0
Instructions small pages: 6209
Large page distribution for instructions: 0%

Data large pages: 0
Data small pages: 5106
Large page distribution for data: 0%

cpu0_L1I TOTAL       ACCESS:   36127007  HIT:   27913439  MISS:    8213568  iACCESS:   36127007  iHIT:   27913439  iMISS:    8213568  dACCESS:          0  dHIT:          0  dMISS:          0  itACCESS:          0  itHIT:          0  itMISS:          0  dtACCESS:          0  dtHIT:          0  dtMISS:          0
cpu0_L1I LOAD         ACCESS:   10523279  HIT:    8267325  MISS:    2255954  iACCESS:   10523279  iHIT:    8267325  iMISS:    2255954  dACCESS:          0  dHIT:          0  dMISS:          0  itACCESS:          0  itHIT:          0  itMISS:          0  dtACCESS:          0  dtHIT:          0  dtMISS:          0
cpu0_L1I RFO          ACCESS:          0  HIT:          0  MISS:          0  iACCESS:          0  iHIT:          0  iMISS:          0  dACCESS:          0  dHIT:          0  dMISS:          0  itACCESS:          0  itHIT:          0  itMISS:          0  dtACCESS:          0  dtHIT:          0  dtMISS:          0
cpu0_L1I PREFETCH     ACCESS:   25603728  HIT:   19646114  MISS:    5957614  iACCESS:   25603728  iHIT:   19646114  iMISS:    5957614  dACCESS:          0  dHIT:          0  dMISS:          0  itACCESS:          0  itHIT:          0  itMISS:          0  dtACCESS:          0  dtHIT:          0  dtMISS:          0
cpu0_L1I WRITE        ACCESS:          0  HIT:          0  MISS:          0  iACCESS:          0  iHIT:          0  iMISS:          0  dACCESS:          0  dHIT:          0  dMISS:          0  itACCESS:          0  itHIT:          0  itMISS:          0  dtACCESS:          0  dtHIT:          0  dtMISS:          0
cpu0_L1I TRANSLATION  ACCESS:          0  HIT:          0  MISS:          0  iACCESS:          0  iHIT:          0  iMISS:          0  dACCESS:          0  dHIT:          0  dMISS:          0  itACCESS:          0  itHIT:          0  itMISS:          0  dtACCESS:          0  dtHIT:          0  dtMISS:          0
cpu0_L1I PREFETCH  REQUESTED:   28066440  ISSUED:   28066203  CROSSED:          0  USEFUL:    2024563  USELESS:     673136
cpu0_L1I AVERAGE iMISS LATENCY: 20.1592 cycles
cpu0_L1I AVERAGE dMISS LATENCY: 0 cycles
cpu0_L1I AVERAGE itMISS LATENCY: 0 cycles
cpu0_L1I AVERAGE dtMISS LATENCY: 0 cycles
cpu0_L1I PAGE CROSSINGS (TLB HIT):         0 
cpu0_L1I PAGE CROSSINGS (TLB MISS):         0 
cpu0_L1I AVERAGE MISS LATENCY: 20.1592 cycles
cpu0_ITLB TOTAL       ACCESS:   30321023  HIT:   28361093  MISS:    1959930  iACCESS:   30321023  iHIT:   28361093  iMISS:    1959930  dACCESS:          0  dHIT:          0  dMISS:          0  itACCESS:          0  itHIT:          0  itMISS:          0  dtACCESS:          0  dtHIT:          0  dtMISS:          0
cpu0_ITLB LOAD         ACCESS:   30321023  HIT:   28361093  MISS:    1959930  iACCESS:   30321023  iHIT:   28361093  iMISS:    1959930  dACCESS:          0  dHIT:          0  dMISS:          0  itACCESS:          0  itHIT:          0  itMISS:          0  dtACCESS:          0  dtHIT:          0  dtMISS:          0
cpu0_ITLB RFO          ACCESS:          0  HIT:          0  MISS:          0  iACCESS:          0  iHIT:          0  iMISS:          0  dACCESS:          0  dHIT:          0  dMISS:          0  itACCESS:          0  itHIT:          0  itMISS:          0  dtACCESS:          0  dtHIT:          0  dtMISS:          0
cpu0_ITLB PREFETCH     ACCESS:          0  HIT:          0  MISS:          0  iACCESS:          0  iHIT:          0  iMISS:          0  dACCESS:          0  dHIT:          0  dMISS:          0  itACCESS:          0  itHIT:          0  itMISS:          0  dtACCESS:          0  dtHIT:          0  dtMISS:          0
cpu0_ITLB WRITE        ACCESS:          0  HIT:          0  MISS:          0  iACCESS:          0  iHIT:          0  iMISS:          0  dACCESS:          0  dHIT:          0  dMISS:          0  itACCESS:          0  itHIT:          0  itMISS:          0  dtACCESS:          0  dtHIT:          0  dtMISS:          0
cpu0_ITLB TRANSLATION  ACCESS:          0  HIT:          0  MISS:          0  iACCESS:          0  iHIT:          0  iMISS:          0  dACCESS:          0  dHIT:          0  dMISS:          0  itACCESS:          0  itHIT:          0  itMISS:          0  dtACCESS:          0  dtHIT:          0  dtMISS:          0
cpu0_ITLB PREFETCH  REQUESTED:          0  ISSUED:          0  CROSSED:          0  USEFUL:     333403  USELESS:      67038
cpu0_ITLB AVERAGE iMISS LATENCY: 6.49594 cycles
cpu0_ITLB AVERAGE dMISS LATENCY: 0 cycles
cpu0_ITLB AVERAGE itMISS LATENCY: 0 cycles
cpu0_ITLB AVERAGE dtMISS LATENCY: 0 cycles
cpu0_ITLB PAGE CROSSINGS (TLB HIT):         0 
cpu0_ITLB PAGE CROSSINGS (TLB MISS):         0 
cpu0_ITLB AVERAGE MISS LATENCY: 6.49594 cycles
cpu0_DTLB TOTAL       ACCESS:   28144441  HIT:   26117169  MISS:    2027272  iACCESS:          0  iHIT:          0  iMISS:          0  dACCESS:   28144441  dHIT:   26117169  dMISS:    2027272  itACCESS:          0  itHIT:          0  itMISS:          0  dtACCESS:          0  dtHIT:          0  dtMISS:          0
cpu0_DTLB LOAD         ACCESS:   28144441  HIT:   26117169  MISS:    2027272  iACCESS:          0  iHIT:          0  iMISS:          0  dACCESS:   28144441  dHIT:   26117169  dMISS:    2027272  itACCESS:          0  itHIT:          0  itMISS:          0  dtACCESS:          0  dtHIT:          0  dtMISS:          0
cpu0_DTLB RFO          ACCESS:          0  HIT:          0  MISS:          0  iACCESS:          0  iHIT:          0  iMISS:          0  dACCESS:          0  dHIT:          0  dMISS:          0  itACCESS:          0  itHIT:          0  itMISS:          0  dtACCESS:          0  dtHIT:          0  dtMISS:          0
cpu0_DTLB PREFETCH     ACCESS:          0  HIT:          0  MISS:          0  iACCESS:          0  iHIT:          0  iMISS:          0  dACCESS:          0  dHIT:          0  dMISS:          0  itACCESS:          0  itHIT:          0  itMISS:          0  dtACCESS:          0  dtHIT:          0  dtMISS:          0
cpu0_DTLB WRITE        ACCESS:          0  HIT:          0  MISS:          0  iACCESS:          0  iHIT:          0  iMISS:          0  dACCESS:          0  dHIT:          0  dMISS:          0  itACCESS:          0  itHIT:          0  itMISS:          0  dtACCESS:          0  dtHIT:          0  dtMISS:          0
cpu0_DTLB TRANSLATION  ACCESS:          0  HIT:          0  MISS:          0  iACCESS:          0  iHIT:          0  iMISS:          0  dACCESS:          0  dHIT:          0  dMISS:          0  itACCESS:          0  itHIT:          0  itMISS:          0  dtACCESS:          0  dtHIT:          0  dtMISS:          0
cpu0_DTLB PREFETCH  REQUESTED:          0  ISSUED:          0  CROSSED:          0  USEFUL:          0  USELESS:          0
cpu0_DTLB AVERAGE iMISS LATENCY: 0 cycles
cpu0_DTLB AVERAGE dMISS LATENCY: 17.3235 cycles
cpu0_DTLB AVERAGE itMISS LATENCY: 0 cycles
cpu0_DTLB AVERAGE dtMISS LATENCY: 0 cycles
cpu0_DTLB PAGE CROSSINGS (TLB HIT):         0 
cpu0_DTLB PAGE CROSSINGS (TLB MISS):         0 
cpu0_DTLB AVERAGE MISS LATENCY: 17.3235 cycles
cpu0_STLB TOTAL       ACCESS:    1640357  HIT:    1389375  MISS:     250982  iACCESS:     400442  iHIT:     309828  iMISS:      90614  dACCESS:    1239915  dHIT:    1079547  dMISS:     160368  itACCESS:          0  itHIT:          0  itMISS:          0  dtACCESS:          0  dtHIT:          0  dtMISS:          0
cpu0_STLB LOAD         ACCESS:    1640357  HIT:    1389375  MISS:     250982  iACCESS:     400442  iHIT:     309828  iMISS:      90614  dACCESS:    1239915  dHIT:    1079547  dMISS:     160368  itACCESS:          0  itHIT:          0  itMISS:          0  dtACCESS:          0  dtHIT:          0  dtMISS:          0
cpu0_STLB RFO          ACCESS:          0  HIT:          0  MISS:          0  iACCESS:          0  iHIT:          0  iMISS:          0  dACCESS:          0  dHIT:          0  dMISS:          0  itACCESS:          0  itHIT:          0  itMISS:          0  dtACCESS:          0  dtHIT:          0  dtMISS:          0
cpu0_STLB PREFETCH     ACCESS:          0  HIT:          0  MISS:          0  iACCESS:          0  iHIT:          0  iMISS:          0  dACCESS:          0  dHIT:          0  dMISS:          0  itACCESS:          0  itHIT:          0  itMISS:          0  dtACCESS:          0  dtHIT:          0  dtMISS:          0
cpu0_STLB WRITE        ACCESS:          0  HIT:          0  MISS:          0  iACCESS:          0  iHIT:          0  iMISS:          0  dACCESS:          0  dHIT:          0  dMISS:          0  itACCESS:          0  itHIT:          0  itMISS:          0  dtACCESS:          0  dtHIT:          0  dtMISS:          0
cpu0_STLB TRANSLATION  ACCESS:          0  HIT:          0  MISS:          0  iACCESS:          0  iHIT:          0  iMISS:          0  dACCESS:          0  dHIT:          0  dMISS:          0  itACCESS:          0  itHIT:          0  itMISS:          0  dtACCESS:          0  dtHIT:          0  dtMISS:          0
cpu0_STLB PREFETCH  REQUESTED:          0  ISSUED:          0  CROSSED:          0  USEFUL:          0  USELESS:          0
cpu0_STLB AVERAGE iMISS LATENCY: 37.9952 cycles
cpu0_STLB AVERAGE dMISS LATENCY: 100.381 cycles
cpu0_STLB AVERAGE itMISS LATENCY: 0 cycles
cpu0_STLB AVERAGE dtMISS LATENCY: 0 cycles
cpu0_STLB PAGE CROSSINGS (TLB HIT):         0 
cpu0_STLB PAGE CROSSINGS (TLB MISS):         0 
cpu0_STLB AVERAGE MISS LATENCY: 138.376 cycles
cpu0_L1D TOTAL       ACCESS:   43226838  HIT:   38764865  MISS:    4461973  iACCESS:          0  iHIT:          0  iMISS:          0  dACCESS:   42908809  dHIT:   38739494  dMISS:    4169315  itACCESS:      97058  itHIT:      12785  itMISS:      84273  dtACCESS:     220971  dtHIT:      12586  dtMISS:     208385
cpu0_L1D LOAD         ACCESS:   19676141  HIT:   17751324  MISS:    1924817  iACCESS:          0  iHIT:          0  iMISS:          0  dACCESS:   19676141  dHIT:   17751324  dMISS:    1924817  itACCESS:          0  itHIT:          0  itMISS:          0  dtACCESS:          0  dtHIT:          0  dtMISS:          0
cpu0_L1D RFO          ACCESS:          0  HIT:          0  MISS:          0  iACCESS:          0  iHIT:          0  iMISS:          0  dACCESS:          0  dHIT:          0  dMISS:          0  itACCESS:          0  itHIT:          0  itMISS:          0  dtACCESS:          0  dtHIT:          0  dtMISS:          0
cpu0_L1D PREFETCH     ACCESS:   13129399  HIT:   11345521  MISS:    1783878  iACCESS:          0  iHIT:          0  iMISS:          0  dACCESS:   13129399  dHIT:   11345521  dMISS:    1783878  itACCESS:          0  itHIT:          0  itMISS:          0  dtACCESS:          0  dtHIT:          0  dtMISS:          0
cpu0_L1D WRITE        ACCESS:   10103269  HIT:    9642649  MISS:     460620  iACCESS:          0  iHIT:          0  iMISS:          0  dACCESS:   10103269  dHIT:    9642649  dMISS:     460620  itACCESS:          0  itHIT:          0  itMISS:          0  dtACCESS:          0  dtHIT:          0  dtMISS:          0
cpu0_L1D TRANSLATION  ACCESS:     318029  HIT:      25371  MISS:     292658  iACCESS:          0  iHIT:          0  iMISS:          0  dACCESS:          0  dHIT:          0  dMISS:          0  itACCESS:      97058  itHIT:      12785  itMISS:      84273  dtACCESS:     220971  dtHIT:      12586  dtMISS:     208385
cpu0_L1D PREFETCH  REQUESTED:   19676141  ISSUED:   17608128  CROSSED:          0  USEFUL:     325187  USELESS:     749625
cpu0_L1D AVERAGE iMISS LATENCY: 0 cycles
cpu0_L1D AVERAGE dMISS LATENCY: 41.7779 cycles
cpu0_L1D AVERAGE itMISS LATENCY: 1.96061 cycles
cpu0_L1D AVERAGE dtMISS LATENCY: 5.1709 cycles
cpu0_L1D PAGE CROSSINGS (TLB HIT):         0 
cpu0_L1D PAGE CROSSINGS (TLB MISS):         0 
cpu0_L1D AVERAGE MISS LATENCY: 48.9094 cycles
cpu0_L2C TOTAL       ACCESS:    7542030  HIT:    2663348  MISS:    4878682  iACCESS:    3441071  iHIT:    1438008  iMISS:    2003063  dACCESS:    3815851  dHIT:    1115183  dMISS:    2700668  itACCESS:      84273  itHIT:      34036  itMISS:      50237  dtACCESS:     200835  dtHIT:      76121  dtMISS:     124714
cpu0_L2C LOAD         ACCESS:    1799627  HIT:     581541  MISS:    1218086  iACCESS:     780160  iHIT:     315138  iMISS:     465022  dACCESS:    1019467  dHIT:     266403  dMISS:     753064  itACCESS:          0  itHIT:          0  itMISS:          0  dtACCESS:          0  dtHIT:          0  dtMISS:          0
cpu0_L2C RFO          ACCESS:     162505  HIT:      38757  MISS:     123748  iACCESS:          0  iHIT:          0  iMISS:          0  dACCESS:     162505  dHIT:      38757  dMISS:     123748  itACCESS:          0  itHIT:          0  itMISS:          0  dtACCESS:          0  dtHIT:          0  dtMISS:          0
cpu0_L2C PREFETCH     ACCESS:    5003595  HIT:    1740720  MISS:    3262875  iACCESS:    2660911  iHIT:    1122870  iMISS:    1538041  dACCESS:    2342684  dHIT:     617850  dMISS:    1724834  itACCESS:          0  itHIT:          0  itMISS:          0  dtACCESS:          0  dtHIT:          0  dtMISS:          0
cpu0_L2C WRITE        ACCESS:     291195  HIT:     192173  MISS:      99022  iACCESS:          0  iHIT:          0  iMISS:          0  dACCESS:     291195  dHIT:     192173  dMISS:      99022  itACCESS:          0  itHIT:          0  itMISS:          0  dtACCESS:          0  dtHIT:          0  dtMISS:          0
cpu0_L2C TRANSLATION  ACCESS:     285108  HIT:     110157  MISS:     174951  iACCESS:          0  iHIT:          0  iMISS:          0  dACCESS:          0  dHIT:          0  dMISS:          0  itACCESS:      84273  itHIT:      34036  itMISS:      50237  dtACCESS:     200835  dtHIT:      76121  dtMISS:     124714
cpu0_L2C PREFETCH  REQUESTED:    1537579  ISSUED:    1537538  CROSSED:          0  USEFUL:     401216  USELESS:     374965
cpu0_L2C AVERAGE iMISS LATENCY: 27.711 cycles
cpu0_L2C AVERAGE dMISS LATENCY: 48.2942 cycles
cpu0_L2C AVERAGE itMISS LATENCY: 1.62696 cycles
cpu0_L2C AVERAGE dtMISS LATENCY: 4.33148 cycles
cpu0_L2C PAGE CROSSINGS (TLB HIT):         0 
cpu0_L2C PAGE CROSSINGS (TLB MISS):         0 
cpu0_L2C AVERAGE MISS LATENCY: 81.9636 cycles
LLC TOTAL       ACCESS:    4791197  HIT:    2847651  MISS:    1943546  iACCESS:    1921006  iHIT:    1264244  iMISS:     656762  dACCESS:    2695240  dHIT:    1548916  dMISS:    1146324  itACCESS:      50237  itHIT:      10229  itMISS:      40008  dtACCESS:     124714  dtHIT:      24262  dtMISS:     100452
LLC LOAD         ACCESS:    1211823  HIT:     767684  MISS:     444139  iACCESS:     463659  iHIT:     323489  iMISS:     140170  dACCESS:     748164  dHIT:     444195  dMISS:     303969  itACCESS:          0  itHIT:          0  itMISS:          0  dtACCESS:          0  dtHIT:          0  dtMISS:          0
LLC RFO          ACCESS:     123702  HIT:      57259  MISS:      66443  iACCESS:          0  iHIT:          0  iMISS:          0  dACCESS:     123702  dHIT:      57259  dMISS:      66443  itACCESS:          0  itHIT:          0  itMISS:          0  dtACCESS:          0  dtHIT:          0  dtMISS:          0
LLC PREFETCH     ACCESS:    3074756  HIT:    1787180  MISS:    1287576  iACCESS:    1457347  iHIT:     940755  iMISS:     516592  dACCESS:    1617409  dHIT:     846425  dMISS:     770984  itACCESS:          0  itHIT:          0  itMISS:          0  dtACCESS:          0  dtHIT:          0  dtMISS:          0
LLC WRITE        ACCESS:     205965  HIT:     201037  MISS:       4928  iACCESS:          0  iHIT:          0  iMISS:          0  dACCESS:     205965  dHIT:     201037  dMISS:       4928  itACCESS:          0  itHIT:          0  itMISS:          0  dtACCESS:          0  dtHIT:          0  dtMISS:          0
LLC TRANSLATION  ACCESS:     174951  HIT:      34491  MISS:     140460  iACCESS:          0  iHIT:          0  iMISS:          0  dACCESS:          0  dHIT:          0  dMISS:          0  itACCESS:      50237  itHIT:      10229  itMISS:      40008  dtACCESS:     124714  dtHIT:      24262  dtMISS:     100452
LLC PREFETCH  REQUESTED:          0  ISSUED:          0  CROSSED:          0  USEFUL:          0  USELESS:          0
LLC AVERAGE iMISS LATENCY: 50.3498 cycles
LLC AVERAGE dMISS LATENCY: 97.3115 cycles
LLC AVERAGE itMISS LATENCY: 3.57398 cycles
LLC AVERAGE dtMISS LATENCY: 9.60843 cycles
LLC PAGE CROSSINGS (TLB HIT):         0 
LLC PAGE CROSSINGS (TLB MISS):         0 
LLC AVERAGE MISS LATENCY: 160.844 cycles

PageTableWalker TOTAL       ACCESS:     128452  
PageTableWalker AVERAGE LATENCY: 3.86611 cycles
PageTableWalker TOTAL LATENCY: 496609 cycles

DRAM Statistics
Channel 0
 RQ ROW_BUFFER_HIT:     531520
  ROW_BUFFER_MISS:    1387843
 AVG DBUS CONGESTED CYCLE:    3.64089
 WQ ROW_BUFFER_HIT:      45570
  ROW_BUFFER_MISS:      37259  FULL:          0

