last_page:0x200000000000000
VMEM_RES_CAP:0x100000
PAGE_SIZE:4096
LOG2_PAGE_SIZE:12
LOG2_PAGE_TABLE_SIZE:9
page_table_levels:5
WARNING: physical memory size is smaller than virtual memory size
FDiP enabled with aggresivity 16

*** ChampSim Multicore Out-of-Order Simulator ***

Warmup Instructions: 50000000
Simulation Instructions: 100000000
Number of CPUs: 1
Small page size: 4096
Large page size: 2097152

CPU 0 Bimodal branch predictor
Basic BTB sets: 1024 ways: 8 indirect buffer size: 4096 RAS size: 64
Instruction page size distrubution: 0
Loading instruction page size distribution from /home/bsc/bsc018186/scratch/itp_asplos25_AE/dump/srv85_ap.pdst
Data page size distrubution: 0
Loading data page size distribution from /home/bsc/bsc018186/scratch/itp_asplos25_AE/dump/srv85_ap.pdst
cpu0_L2C IP-based stride prefetcher
cpu0_L2C is using PTP replacement policy:
	TLB_STRESS_THRESHOLD:0
	PTE_EVICTION_RATIO:0
cpu0_L1D next line prefetcher
cpu0_STLB using iTP with max lru@8
cpu0_STLB using iTP with instr@0 and data@2
Init sat counter with 3 bits (max:50).
cpu0_L1I next line prefetcher
Off-chip DRAM Size: 4 GiB Channels: 1 Width: 64-bit Data Rate: 3200 MT/s
Heartbeat CPU 0 instructions: 10000000 cycles: 2500128 heartbeat IPC: 3.9998 cumulative IPC: 3.9998 (Simulation time: 0 hr 0 min 42 sec) 
Heartbeat CPU 0 instructions: 20000001 cycles: 5000181 heartbeat IPC: 3.99992 cumulative IPC: 3.99986 (Simulation time: 0 hr 1 min 27 sec) 
Heartbeat CPU 0 instructions: 30000003 cycles: 7500246 heartbeat IPC: 3.9999 cumulative IPC: 3.99987 (Simulation time: 0 hr 2 min 11 sec) 
Heartbeat CPU 0 instructions: 40000003 cycles: 10000289 heartbeat IPC: 3.99994 cumulative IPC: 3.99989 (Simulation time: 0 hr 2 min 54 sec) 
Heartbeat CPU 0 instructions: 50000002 cycles: 12500341 heartbeat IPC: 3.99992 cumulative IPC: 3.9999 (Simulation time: 0 hr 3 min 37 sec) 
Warmup finished CPU 0 instructions: 50000002 cycles: 12500342 cumulative IPC: 3.9999 (Simulation time: 0 hr 3 min 37 sec) 

Warmup complete CPU 0 instructions: 50000002 cycles: 12500342 (Simulation time: 0 hr 3 min 37 sec) 

Heartbeat CPU 0 instructions: 60000001 cycles: 32428222 heartbeat IPC: 0.50181 cumulative IPC: 0.50181 (Simulation time: 0 hr 4 min 55 sec) 
Heartbeat CPU 0 instructions: 70000002 cycles: 53408112 heartbeat IPC: 0.476647 cumulative IPC: 0.488905 (Simulation time: 0 hr 6 min 16 sec) 
Heartbeat CPU 0 instructions: 80000000 cycles: 73966453 heartbeat IPC: 0.486421 cumulative IPC: 0.488074 (Simulation time: 0 hr 7 min 31 sec) 
Heartbeat CPU 0 instructions: 90000000 cycles: 94105063 heartbeat IPC: 0.496559 cumulative IPC: 0.490168 (Simulation time: 0 hr 8 min 50 sec) 
Heartbeat CPU 0 instructions: 100000000 cycles: 114460815 heartbeat IPC: 0.491262 cumulative IPC: 0.490387 (Simulation time: 0 hr 10 min 7 sec) 
*** Reached end of trace: /gpfs/projects/bsc18/MN4/bsc18/romol/ChampSim/traces/qualcomm_srv/srv85_ap.champsimtrace.xz
Heartbeat CPU 0 instructions: 110000002 cycles: 135339205 heartbeat IPC: 0.478965 cumulative IPC: 0.488445 (Simulation time: 0 hr 11 min 21 sec) 
Heartbeat CPU 0 instructions: 120000003 cycles: 156795676 heartbeat IPC: 0.46606 cumulative IPC: 0.485117 (Simulation time: 0 hr 12 min 33 sec) 
Heartbeat CPU 0 instructions: 130000000 cycles: 178046942 heartbeat IPC: 0.470561 cumulative IPC: 0.483248 (Simulation time: 0 hr 13 min 45 sec) 
Heartbeat CPU 0 instructions: 140000004 cycles: 198969501 heartbeat IPC: 0.477954 cumulative IPC: 0.482654 (Simulation time: 0 hr 14 min 56 sec) 
Heartbeat CPU 0 instructions: 150000003 cycles: 221274035 heartbeat IPC: 0.44834 cumulative IPC: 0.478988 (Simulation time: 0 hr 16 min 7 sec) 
Simulation finished CPU 0 instructions: 100000001 cycles: 208773694 cumulative IPC: 0.478988 (Simulation time: 0 hr 16 min 7 sec) 

Simulation complete CPU 0 instructions: 100000001 cycles: 208773694 (Simulation time: 0 hr 16 min 7 sec) 


ChampSim completed all CPUs

Saving instructions large page distribution to /home/bsc/bsc018186/scratch/itp_asplos25_AE/dump/srv85_ap.pdst...
Saving data large page distribution to /home/bsc/bsc018186/scratch/itp_asplos25_AE/dump/srv85_ap.pdst...
=== Simulation ===
CPU 0 runs /gpfs/projects/bsc18/MN4/bsc18/romol/ChampSim/traces/qualcomm_srv/srv85_ap.champsimtrace.xz

Region of Interest Statistics

CPU 0 cumulative IPC: 0.478988 instructions: 100000001 cycles: 208773694
CPU 0 Branch Prediction Accuracy: 79.5287% MPKI: 36.8445 Average ROB Occupancy at Mispredict: 10.5598
Branch type MPKI
BRANCH_DIRECT_JUMP: 1.38597
BRANCH_INDIRECT: 18.9711
BRANCH_CONDITIONAL: 11.5765
BRANCH_DIRECT_CALL: 2.48226
BRANCH_INDIRECT_CALL: 0.66006
BRANCH_RETURN: 1.7687

Instructions large pages: 0
Instructions small pages: 6209
Large page distribution for instructions: 0%

Data large pages: 0
Data small pages: 5106
Large page distribution for data: 0%

cpu0_L1I TOTAL       ACCESS:   36162301  HIT:   27881734  MISS:    8280567  iACCESS:   36162301  iHIT:   27881734  iMISS:    8280567  dACCESS:          0  dHIT:          0  dMISS:          0  itACCESS:          0  itHIT:          0  itMISS:          0  dtACCESS:          0  dtHIT:          0  dtMISS:          0
cpu0_L1I LOAD         ACCESS:   10530714  HIT:    8254717  MISS:    2275997  iACCESS:   10530714  iHIT:    8254717  iMISS:    2275997  dACCESS:          0  dHIT:          0  dMISS:          0  itACCESS:          0  itHIT:          0  itMISS:          0  dtACCESS:          0  dtHIT:          0  dtMISS:          0
cpu0_L1I RFO          ACCESS:          0  HIT:          0  MISS:          0  iACCESS:          0  iHIT:          0  iMISS:          0  dACCESS:          0  dHIT:          0  dMISS:          0  itACCESS:          0  itHIT:          0  itMISS:          0  dtACCESS:          0  dtHIT:          0  dtMISS:          0
cpu0_L1I PREFETCH     ACCESS:   25631587  HIT:   19627017  MISS:    6004570  iACCESS:   25631587  iHIT:   19627017  iMISS:    6004570  dACCESS:          0  dHIT:          0  dMISS:          0  itACCESS:          0  itHIT:          0  itMISS:          0  dtACCESS:          0  dtHIT:          0  dtMISS:          0
cpu0_L1I WRITE        ACCESS:          0  HIT:          0  MISS:          0  iACCESS:          0  iHIT:          0  iMISS:          0  dACCESS:          0  dHIT:          0  dMISS:          0  itACCESS:          0  itHIT:          0  itMISS:          0  dtACCESS:          0  dtHIT:          0  dtMISS:          0
cpu0_L1I TRANSLATION  ACCESS:          0  HIT:          0  MISS:          0  iACCESS:          0  iHIT:          0  iMISS:          0  dACCESS:          0  dHIT:          0  dMISS:          0  itACCESS:          0  itHIT:          0  itMISS:          0  dtACCESS:          0  dtHIT:          0  dtMISS:          0
cpu0_L1I PREFETCH  REQUESTED:   28073141  ISSUED:   28072093  CROSSED:          0  USEFUL:    2024655  USELESS:     672985
cpu0_L1I AVERAGE iMISS LATENCY: 20.1698 cycles
cpu0_L1I AVERAGE dMISS LATENCY: 0 cycles
cpu0_L1I AVERAGE itMISS LATENCY: 0 cycles
cpu0_L1I AVERAGE dtMISS LATENCY: 0 cycles
cpu0_L1I PAGE CROSSINGS (TLB HIT):         0 
cpu0_L1I PAGE CROSSINGS (TLB MISS):         0 
cpu0_L1I AVERAGE MISS LATENCY: 20.1698 cycles
cpu0_ITLB TOTAL       ACCESS:   30330794  HIT:   28374979  MISS:    1955815  iACCESS:   30330794  iHIT:   28374979  iMISS:    1955815  dACCESS:          0  dHIT:          0  dMISS:          0  itACCESS:          0  itHIT:          0  itMISS:          0  dtACCESS:          0  dtHIT:          0  dtMISS:          0
cpu0_ITLB LOAD         ACCESS:   30330794  HIT:   28374979  MISS:    1955815  iACCESS:   30330794  iHIT:   28374979  iMISS:    1955815  dACCESS:          0  dHIT:          0  dMISS:          0  itACCESS:          0  itHIT:          0  itMISS:          0  dtACCESS:          0  dtHIT:          0  dtMISS:          0
cpu0_ITLB RFO          ACCESS:          0  HIT:          0  MISS:          0  iACCESS:          0  iHIT:          0  iMISS:          0  dACCESS:          0  dHIT:          0  dMISS:          0  itACCESS:          0  itHIT:          0  itMISS:          0  dtACCESS:          0  dtHIT:          0  dtMISS:          0
cpu0_ITLB PREFETCH     ACCESS:          0  HIT:          0  MISS:          0  iACCESS:          0  iHIT:          0  iMISS:          0  dACCESS:          0  dHIT:          0  dMISS:          0  itACCESS:          0  itHIT:          0  itMISS:          0  dtACCESS:          0  dtHIT:          0  dtMISS:          0
cpu0_ITLB WRITE        ACCESS:          0  HIT:          0  MISS:          0  iACCESS:          0  iHIT:          0  iMISS:          0  dACCESS:          0  dHIT:          0  dMISS:          0  itACCESS:          0  itHIT:          0  itMISS:          0  dtACCESS:          0  dtHIT:          0  dtMISS:          0
cpu0_ITLB TRANSLATION  ACCESS:          0  HIT:          0  MISS:          0  iACCESS:          0  iHIT:          0  iMISS:          0  dACCESS:          0  dHIT:          0  dMISS:          0  itACCESS:          0  itHIT:          0  itMISS:          0  dtACCESS:          0  dtHIT:          0  dtMISS:          0
cpu0_ITLB PREFETCH  REQUESTED:          0  ISSUED:          0  CROSSED:          0  USEFUL:     333520  USELESS:      66929
cpu0_ITLB AVERAGE iMISS LATENCY: 3.85284 cycles
cpu0_ITLB AVERAGE dMISS LATENCY: 0 cycles
cpu0_ITLB AVERAGE itMISS LATENCY: 0 cycles
cpu0_ITLB AVERAGE dtMISS LATENCY: 0 cycles
cpu0_ITLB PAGE CROSSINGS (TLB HIT):         0 
cpu0_ITLB PAGE CROSSINGS (TLB MISS):         0 
cpu0_ITLB AVERAGE MISS LATENCY: 3.85284 cycles
cpu0_DTLB TOTAL       ACCESS:   28144538  HIT:   26107940  MISS:    2036598  iACCESS:          0  iHIT:          0  iMISS:          0  dACCESS:   28144538  dHIT:   26107940  dMISS:    2036598  itACCESS:          0  itHIT:          0  itMISS:          0  dtACCESS:          0  dtHIT:          0  dtMISS:          0
cpu0_DTLB LOAD         ACCESS:   28144538  HIT:   26107940  MISS:    2036598  iACCESS:          0  iHIT:          0  iMISS:          0  dACCESS:   28144538  dHIT:   26107940  dMISS:    2036598  itACCESS:          0  itHIT:          0  itMISS:          0  dtACCESS:          0  dtHIT:          0  dtMISS:          0
cpu0_DTLB RFO          ACCESS:          0  HIT:          0  MISS:          0  iACCESS:          0  iHIT:          0  iMISS:          0  dACCESS:          0  dHIT:          0  dMISS:          0  itACCESS:          0  itHIT:          0  itMISS:          0  dtACCESS:          0  dtHIT:          0  dtMISS:          0
cpu0_DTLB PREFETCH     ACCESS:          0  HIT:          0  MISS:          0  iACCESS:          0  iHIT:          0  iMISS:          0  dACCESS:          0  dHIT:          0  dMISS:          0  itACCESS:          0  itHIT:          0  itMISS:          0  dtACCESS:          0  dtHIT:          0  dtMISS:          0
cpu0_DTLB WRITE        ACCESS:          0  HIT:          0  MISS:          0  iACCESS:          0  iHIT:          0  iMISS:          0  dACCESS:          0  dHIT:          0  dMISS:          0  itACCESS:          0  itHIT:          0  itMISS:          0  dtACCESS:          0  dtHIT:          0  dtMISS:          0
cpu0_DTLB TRANSLATION  ACCESS:          0  HIT:          0  MISS:          0  iACCESS:          0  iHIT:          0  iMISS:          0  dACCESS:          0  dHIT:          0  dMISS:          0  itACCESS:          0  itHIT:          0  itMISS:          0  dtACCESS:          0  dtHIT:          0  dtMISS:          0
cpu0_DTLB PREFETCH  REQUESTED:          0  ISSUED:          0  CROSSED:          0  USEFUL:          0  USELESS:          0
cpu0_DTLB AVERAGE iMISS LATENCY: 0 cycles
cpu0_DTLB AVERAGE dMISS LATENCY: 18.6751 cycles
cpu0_DTLB AVERAGE itMISS LATENCY: 0 cycles
cpu0_DTLB AVERAGE dtMISS LATENCY: 0 cycles
cpu0_DTLB PAGE CROSSINGS (TLB HIT):         0 
cpu0_DTLB PAGE CROSSINGS (TLB MISS):         0 
cpu0_DTLB AVERAGE MISS LATENCY: 18.6751 cycles
cpu0_STLB TOTAL       ACCESS:    1640319  HIT:    1406534  MISS:     233785  iACCESS:     400450  iHIT:     368801  iMISS:      31649  dACCESS:    1239869  dHIT:    1037733  dMISS:     202136  itACCESS:          0  itHIT:          0  itMISS:          0  dtACCESS:          0  dtHIT:          0  dtMISS:          0
cpu0_STLB LOAD         ACCESS:    1640319  HIT:    1406534  MISS:     233785  iACCESS:     400450  iHIT:     368801  iMISS:      31649  dACCESS:    1239869  dHIT:    1037733  dMISS:     202136  itACCESS:          0  itHIT:          0  itMISS:          0  dtACCESS:          0  dtHIT:          0  dtMISS:          0
cpu0_STLB RFO          ACCESS:          0  HIT:          0  MISS:          0  iACCESS:          0  iHIT:          0  iMISS:          0  dACCESS:          0  dHIT:          0  dMISS:          0  itACCESS:          0  itHIT:          0  itMISS:          0  dtACCESS:          0  dtHIT:          0  dtMISS:          0
cpu0_STLB PREFETCH     ACCESS:          0  HIT:          0  MISS:          0  iACCESS:          0  iHIT:          0  iMISS:          0  dACCESS:          0  dHIT:          0  dMISS:          0  itACCESS:          0  itHIT:          0  itMISS:          0  dtACCESS:          0  dtHIT:          0  dtMISS:          0
cpu0_STLB WRITE        ACCESS:          0  HIT:          0  MISS:          0  iACCESS:          0  iHIT:          0  iMISS:          0  dACCESS:          0  dHIT:          0  dMISS:          0  itACCESS:          0  itHIT:          0  itMISS:          0  dtACCESS:          0  dtHIT:          0  dtMISS:          0
cpu0_STLB TRANSLATION  ACCESS:          0  HIT:          0  MISS:          0  iACCESS:          0  iHIT:          0  iMISS:          0  dACCESS:          0  dHIT:          0  dMISS:          0  itACCESS:          0  itHIT:          0  itMISS:          0  dtACCESS:          0  dtHIT:          0  dtMISS:          0
cpu0_STLB PREFETCH  REQUESTED:          0  ISSUED:          0  CROSSED:          0  USEFUL:          0  USELESS:          0
cpu0_STLB AVERAGE iMISS LATENCY: 18.8502 cycles
cpu0_STLB AVERAGE dMISS LATENCY: 120.063 cycles
cpu0_STLB AVERAGE itMISS LATENCY: 0 cycles
cpu0_STLB AVERAGE dtMISS LATENCY: 0 cycles
cpu0_STLB PAGE CROSSINGS (TLB HIT):         0 
cpu0_STLB PAGE CROSSINGS (TLB MISS):         0 
cpu0_STLB AVERAGE MISS LATENCY: 138.914 cycles
cpu0_L1D TOTAL       ACCESS:   43232808  HIT:   38754506  MISS:    4478302  iACCESS:          0  iHIT:          0  iMISS:          0  dACCESS:   42920857  dHIT:   38735660  dMISS:    4185197  itACCESS:      35982  itHIT:       2889  itMISS:      33093  dtACCESS:     275969  dtHIT:      15957  dtMISS:     260012
cpu0_L1D LOAD         ACCESS:   19675687  HIT:   17745720  MISS:    1929967  iACCESS:          0  iHIT:          0  iMISS:          0  dACCESS:   19675687  dHIT:   17745720  dMISS:    1929967  itACCESS:          0  itHIT:          0  itMISS:          0  dtACCESS:          0  dtHIT:          0  dtMISS:          0
cpu0_L1D RFO          ACCESS:          0  HIT:          0  MISS:          0  iACCESS:          0  iHIT:          0  iMISS:          0  dACCESS:          0  dHIT:          0  dMISS:          0  itACCESS:          0  itHIT:          0  itMISS:          0  dtACCESS:          0  dtHIT:          0  dtMISS:          0
cpu0_L1D PREFETCH     ACCESS:   13141182  HIT:   11346647  MISS:    1794535  iACCESS:          0  iHIT:          0  iMISS:          0  dACCESS:   13141182  dHIT:   11346647  dMISS:    1794535  itACCESS:          0  itHIT:          0  itMISS:          0  dtACCESS:          0  dtHIT:          0  dtMISS:          0
cpu0_L1D WRITE        ACCESS:   10103988  HIT:    9643293  MISS:     460695  iACCESS:          0  iHIT:          0  iMISS:          0  dACCESS:   10103988  dHIT:    9643293  dMISS:     460695  itACCESS:          0  itHIT:          0  itMISS:          0  dtACCESS:          0  dtHIT:          0  dtMISS:          0
cpu0_L1D TRANSLATION  ACCESS:     311951  HIT:      18846  MISS:     293105  iACCESS:          0  iHIT:          0  iMISS:          0  dACCESS:          0  dHIT:          0  dMISS:          0  itACCESS:      35982  itHIT:       2889  itMISS:      33093  dtACCESS:     275969  dtHIT:      15957  dtMISS:     260012
cpu0_L1D PREFETCH  REQUESTED:   19675687  ISSUED:   17597708  CROSSED:          0  USEFUL:     324982  USELESS:     750246
cpu0_L1D AVERAGE iMISS LATENCY: 0 cycles
cpu0_L1D AVERAGE dMISS LATENCY: 42.3889 cycles
cpu0_L1D AVERAGE itMISS LATENCY: 0.911788 cycles
cpu0_L1D AVERAGE dtMISS LATENCY: 5.68597 cycles
cpu0_L1D PAGE CROSSINGS (TLB HIT):         0 
cpu0_L1D PAGE CROSSINGS (TLB MISS):         0 
cpu0_L1D AVERAGE MISS LATENCY: 48.9866 cycles
cpu0_L2C TOTAL       ACCESS:    7544905  HIT:    2318106  MISS:    5226799  iACCESS:    3440552  iHIT:    1285602  iMISS:    2154950  dACCESS:    3815769  dHIT:     916838  dMISS:    2898931  itACCESS:      33093  itHIT:       8339  itMISS:      24754  dtACCESS:     255491  dtHIT:     107327  dtMISS:     148164
cpu0_L2C LOAD         ACCESS:    1799605  HIT:     463548  MISS:    1336057  iACCESS:     779601  iHIT:     262335  iMISS:     517266  dACCESS:    1020004  dHIT:     201213  dMISS:     818791  itACCESS:          0  itHIT:          0  itMISS:          0  dtACCESS:          0  dtHIT:          0  dtMISS:          0
cpu0_L2C RFO          ACCESS:     162267  HIT:      29579  MISS:     132688  iACCESS:          0  iHIT:          0  iMISS:          0  dACCESS:     162267  dHIT:      29579  dMISS:     132688  itACCESS:          0  itHIT:          0  itMISS:          0  dtACCESS:          0  dtHIT:          0  dtMISS:          0
cpu0_L2C PREFETCH     ACCESS:    5003424  HIT:    1560287  MISS:    3443137  iACCESS:    2660951  iHIT:    1023267  iMISS:    1637684  dACCESS:    2342473  dHIT:     537020  dMISS:    1805453  itACCESS:          0  itHIT:          0  itMISS:          0  dtACCESS:          0  dtHIT:          0  dtMISS:          0
cpu0_L2C WRITE        ACCESS:     291025  HIT:     149026  MISS:     141999  iACCESS:          0  iHIT:          0  iMISS:          0  dACCESS:     291025  dHIT:     149026  dMISS:     141999  itACCESS:          0  itHIT:          0  itMISS:          0  dtACCESS:          0  dtHIT:          0  dtMISS:          0
cpu0_L2C TRANSLATION  ACCESS:     288584  HIT:     115666  MISS:     172918  iACCESS:          0  iHIT:          0  iMISS:          0  dACCESS:          0  dHIT:          0  dMISS:          0  itACCESS:      33093  itHIT:       8339  itMISS:      24754  dtACCESS:     255491  dtHIT:     107327  dtMISS:     148164
cpu0_L2C PREFETCH  REQUESTED:    1538034  ISSUED:    1538034  CROSSED:          0  USEFUL:     402172  USELESS:     398545
cpu0_L2C AVERAGE iMISS LATENCY: 26.1603 cycles
cpu0_L2C AVERAGE dMISS LATENCY: 45.9511 cycles
cpu0_L2C AVERAGE itMISS LATENCY: 0.719307 cycles
cpu0_L2C AVERAGE dtMISS LATENCY: 4.40115 cycles
cpu0_L2C PAGE CROSSINGS (TLB HIT):         0 
cpu0_L2C PAGE CROSSINGS (TLB MISS):         0 
cpu0_L2C AVERAGE MISS LATENCY: 77.2319 cycles
LLC TOTAL       ACCESS:    5111515  HIT:    3190152  MISS:    1921363  iACCESS:    2070737  iHIT:    1423507  iMISS:     647230  dACCESS:    2867860  dHIT:    1720627  dMISS:    1147233  itACCESS:      24754  itHIT:       6047  itMISS:      18707  dtACCESS:     148164  dtHIT:      39971  dtMISS:     108193
LLC LOAD         ACCESS:    1330186  HIT:     891813  MISS:     438373  iACCESS:     515850  iHIT:     382831  iMISS:     133019  dACCESS:     814336  dHIT:     508982  dMISS:     305354  itACCESS:          0  itHIT:          0  itMISS:          0  dtACCESS:          0  dtHIT:          0  dtMISS:          0
LLC RFO          ACCESS:     132682  HIT:      68940  MISS:      63742  iACCESS:          0  iHIT:          0  iMISS:          0  dACCESS:     132682  dHIT:      68940  dMISS:      63742  itACCESS:          0  itHIT:          0  itMISS:          0  dtACCESS:          0  dtHIT:          0  dtMISS:          0
LLC PREFETCH     ACCESS:    3252135  HIT:    1962994  MISS:    1289141  iACCESS:    1554887  iHIT:    1040676  iMISS:     514211  dACCESS:    1697248  dHIT:     922318  dMISS:     774930  itACCESS:          0  itHIT:          0  itMISS:          0  dtACCESS:          0  dtHIT:          0  dtMISS:          0
LLC WRITE        ACCESS:     223594  HIT:     220387  MISS:       3207  iACCESS:          0  iHIT:          0  iMISS:          0  dACCESS:     223594  dHIT:     220387  dMISS:       3207  itACCESS:          0  itHIT:          0  itMISS:          0  dtACCESS:          0  dtHIT:          0  dtMISS:          0
LLC TRANSLATION  ACCESS:     172918  HIT:      46018  MISS:     126900  iACCESS:          0  iHIT:          0  iMISS:          0  dACCESS:          0  dHIT:          0  dMISS:          0  itACCESS:      24754  itHIT:       6047  itMISS:      18707  dtACCESS:     148164  dtHIT:      39971  dtMISS:     108193
LLC PREFETCH  REQUESTED:          0  ISSUED:          0  CROSSED:          0  USEFUL:          0  USELESS:          0
LLC AVERAGE iMISS LATENCY: 50.2405 cycles
LLC AVERAGE dMISS LATENCY: 99.1733 cycles
LLC AVERAGE itMISS LATENCY: 1.70304 cycles
LLC AVERAGE dtMISS LATENCY: 10.4568 cycles
LLC PAGE CROSSINGS (TLB HIT):         0 
LLC PAGE CROSSINGS (TLB MISS):         0 
LLC AVERAGE MISS LATENCY: 161.574 cycles

PageTableWalker TOTAL       ACCESS:     112363  
PageTableWalker AVERAGE LATENCY: 4.29584 cycles
PageTableWalker TOTAL LATENCY: 482693 cycles

DRAM Statistics
Channel 0
 RQ ROW_BUFFER_HIT:     530215
  ROW_BUFFER_MISS:    1370275
 AVG DBUS CONGESTED CYCLE:    3.63941
 WQ ROW_BUFFER_HIT:      46641
  ROW_BUFFER_MISS:      39323  FULL:          0

