last_page:0x200000000000000
VMEM_RES_CAP:0x100000
PAGE_SIZE:4096
LOG2_PAGE_SIZE:12
LOG2_PAGE_TABLE_SIZE:9
page_table_levels:5
WARNING: physical memory size is smaller than virtual memory size
FDiP enabled with aggresivity 16

*** ChampSim Multicore Out-of-Order Simulator ***

Warmup Instructions: 50000000
Simulation Instructions: 100000000
Number of CPUs: 1
Small page size: 4096
Large page size: 2097152

CPU 0 Bimodal branch predictor
Basic BTB sets: 1024 ways: 8 indirect buffer size: 4096 RAS size: 64
Instruction page size distrubution: 0
Loading instruction page size distribution from /home/bsc/bsc018186/scratch/itp_asplos25_AE/dump/srv85_ap.pdst
Data page size distrubution: 0
Loading data page size distribution from /home/bsc/bsc018186/scratch/itp_asplos25_AE/dump/srv85_ap.pdst
cpu0_L2C IP-based stride prefetcher
cpu0_L1D next line prefetcher
CHiRPing...
cpu0_L1I next line prefetcher
Off-chip DRAM Size: 4 GiB Channels: 1 Width: 64-bit Data Rate: 3200 MT/s
Heartbeat CPU 0 instructions: 10000000 cycles: 2500150 heartbeat IPC: 3.99977 cumulative IPC: 3.99977 (Simulation time: 0 hr 0 min 39 sec) 
Heartbeat CPU 0 instructions: 20000001 cycles: 5000202 heartbeat IPC: 3.99992 cumulative IPC: 3.99984 (Simulation time: 0 hr 1 min 19 sec) 
Heartbeat CPU 0 instructions: 30000003 cycles: 7500231 heartbeat IPC: 3.99996 cumulative IPC: 3.99988 (Simulation time: 0 hr 2 min 1 sec) 
Heartbeat CPU 0 instructions: 40000003 cycles: 10000310 heartbeat IPC: 3.99988 cumulative IPC: 3.99988 (Simulation time: 0 hr 2 min 42 sec) 
Heartbeat CPU 0 instructions: 50000002 cycles: 12500342 heartbeat IPC: 3.99995 cumulative IPC: 3.9999 (Simulation time: 0 hr 3 min 24 sec) 
Warmup finished CPU 0 instructions: 50000002 cycles: 12500343 cumulative IPC: 3.9999 (Simulation time: 0 hr 3 min 24 sec) 

Warmup complete CPU 0 instructions: 50000002 cycles: 12500343 (Simulation time: 0 hr 3 min 24 sec) 

Heartbeat CPU 0 instructions: 60000001 cycles: 31320652 heartbeat IPC: 0.531341 cumulative IPC: 0.531341 (Simulation time: 0 hr 4 min 35 sec) 
Heartbeat CPU 0 instructions: 70000002 cycles: 51034352 heartbeat IPC: 0.507262 cumulative IPC: 0.519023 (Simulation time: 0 hr 5 min 47 sec) 
Heartbeat CPU 0 instructions: 80000000 cycles: 70150433 heartbeat IPC: 0.52312 cumulative IPC: 0.520381 (Simulation time: 0 hr 6 min 59 sec) 
Heartbeat CPU 0 instructions: 90000000 cycles: 88899440 heartbeat IPC: 0.533362 cumulative IPC: 0.523567 (Simulation time: 0 hr 8 min 9 sec) 
Heartbeat CPU 0 instructions: 100000000 cycles: 107757115 heartbeat IPC: 0.530289 cumulative IPC: 0.524898 (Simulation time: 0 hr 9 min 19 sec) 
*** Reached end of trace: /gpfs/projects/bsc18/MN4/bsc18/romol/ChampSim/traces/qualcomm_srv/srv85_ap.champsimtrace.xz
Heartbeat CPU 0 instructions: 110000002 cycles: 126999144 heartbeat IPC: 0.519696 cumulative IPC: 0.524023 (Simulation time: 0 hr 10 min 28 sec) 
Heartbeat CPU 0 instructions: 120000003 cycles: 146241936 heartbeat IPC: 0.519676 cumulative IPC: 0.523398 (Simulation time: 0 hr 11 min 36 sec) 
Heartbeat CPU 0 instructions: 130000000 cycles: 165492288 heartbeat IPC: 0.519471 cumulative IPC: 0.522904 (Simulation time: 0 hr 12 min 43 sec) 
Heartbeat CPU 0 instructions: 140000004 cycles: 184325005 heartbeat IPC: 0.530992 cumulative IPC: 0.52379 (Simulation time: 0 hr 13 min 50 sec) 
Heartbeat CPU 0 instructions: 150000003 cycles: 204334715 heartbeat IPC: 0.499758 cumulative IPC: 0.521284 (Simulation time: 0 hr 14 min 58 sec) 
Simulation finished CPU 0 instructions: 100000001 cycles: 191834373 cumulative IPC: 0.521284 (Simulation time: 0 hr 14 min 58 sec) 

Simulation complete CPU 0 instructions: 100000001 cycles: 191834373 (Simulation time: 0 hr 14 min 58 sec) 


ChampSim completed all CPUs

Saving instructions large page distribution to /home/bsc/bsc018186/scratch/itp_asplos25_AE/dump/srv85_ap.pdst...
Saving data large page distribution to /home/bsc/bsc018186/scratch/itp_asplos25_AE/dump/srv85_ap.pdst...
=== Simulation ===
CPU 0 runs /gpfs/projects/bsc18/MN4/bsc18/romol/ChampSim/traces/qualcomm_srv/srv85_ap.champsimtrace.xz

Region of Interest Statistics

CPU 0 cumulative IPC: 0.521284 instructions: 100000001 cycles: 191834373
CPU 0 Branch Prediction Accuracy: 79.5287% MPKI: 36.8445 Average ROB Occupancy at Mispredict: 10.1494
Branch type MPKI
BRANCH_DIRECT_JUMP: 1.38597
BRANCH_INDIRECT: 18.9711
BRANCH_CONDITIONAL: 11.5765
BRANCH_DIRECT_CALL: 2.48226
BRANCH_INDIRECT_CALL: 0.66006
BRANCH_RETURN: 1.7687

Instructions large pages: 0
Instructions small pages: 6209
Large page distribution for instructions: 0%

Data large pages: 0
Data small pages: 5106
Large page distribution for data: 0%

cpu0_L1I TOTAL       ACCESS:   36371225  HIT:   27882885  MISS:    8488340  iACCESS:   36371225  iHIT:   27882885  iMISS:    8488340  dACCESS:          0  dHIT:          0  dMISS:          0  itACCESS:          0  itHIT:          0  itMISS:          0  dtACCESS:          0  dtHIT:          0  dtMISS:          0
cpu0_L1I LOAD         ACCESS:   10586731  HIT:    8256654  MISS:    2330077  iACCESS:   10586731  iHIT:    8256654  iMISS:    2330077  dACCESS:          0  dHIT:          0  dMISS:          0  itACCESS:          0  itHIT:          0  itMISS:          0  dtACCESS:          0  dtHIT:          0  dtMISS:          0
cpu0_L1I RFO          ACCESS:          0  HIT:          0  MISS:          0  iACCESS:          0  iHIT:          0  iMISS:          0  dACCESS:          0  dHIT:          0  dMISS:          0  itACCESS:          0  itHIT:          0  itMISS:          0  dtACCESS:          0  dtHIT:          0  dtMISS:          0
cpu0_L1I PREFETCH     ACCESS:   25784494  HIT:   19626231  MISS:    6158263  iACCESS:   25784494  iHIT:   19626231  iMISS:    6158263  dACCESS:          0  dHIT:          0  dMISS:          0  itACCESS:          0  itHIT:          0  itMISS:          0  dtACCESS:          0  dtHIT:          0  dtMISS:          0
cpu0_L1I WRITE        ACCESS:          0  HIT:          0  MISS:          0  iACCESS:          0  iHIT:          0  iMISS:          0  dACCESS:          0  dHIT:          0  dMISS:          0  itACCESS:          0  itHIT:          0  itMISS:          0  dtACCESS:          0  dtHIT:          0  dtMISS:          0
cpu0_L1I TRANSLATION  ACCESS:          0  HIT:          0  MISS:          0  iACCESS:          0  iHIT:          0  iMISS:          0  dACCESS:          0  dHIT:          0  dMISS:          0  itACCESS:          0  itHIT:          0  itMISS:          0  dtACCESS:          0  dtHIT:          0  dtMISS:          0
cpu0_L1I PREFETCH  REQUESTED:   28126529  ISSUED:   28124205  CROSSED:          0  USEFUL:    2024547  USELESS:     672810
cpu0_L1I AVERAGE iMISS LATENCY: 18.9775 cycles
cpu0_L1I AVERAGE dMISS LATENCY: 0 cycles
cpu0_L1I AVERAGE itMISS LATENCY: 0 cycles
cpu0_L1I AVERAGE dtMISS LATENCY: 0 cycles
cpu0_L1I PAGE CROSSINGS (TLB HIT):         0 
cpu0_L1I PAGE CROSSINGS (TLB MISS):         0 
cpu0_L1I AVERAGE MISS LATENCY: 18.9775 cycles
cpu0_ITLB TOTAL       ACCESS:   30374879  HIT:   28414884  MISS:    1959995  iACCESS:   30374879  iHIT:   28414884  iMISS:    1959995  dACCESS:          0  dHIT:          0  dMISS:          0  itACCESS:          0  itHIT:          0  itMISS:          0  dtACCESS:          0  dtHIT:          0  dtMISS:          0
cpu0_ITLB LOAD         ACCESS:   30374879  HIT:   28414884  MISS:    1959995  iACCESS:   30374879  iHIT:   28414884  iMISS:    1959995  dACCESS:          0  dHIT:          0  dMISS:          0  itACCESS:          0  itHIT:          0  itMISS:          0  dtACCESS:          0  dtHIT:          0  dtMISS:          0
cpu0_ITLB RFO          ACCESS:          0  HIT:          0  MISS:          0  iACCESS:          0  iHIT:          0  iMISS:          0  dACCESS:          0  dHIT:          0  dMISS:          0  itACCESS:          0  itHIT:          0  itMISS:          0  dtACCESS:          0  dtHIT:          0  dtMISS:          0
cpu0_ITLB PREFETCH     ACCESS:          0  HIT:          0  MISS:          0  iACCESS:          0  iHIT:          0  iMISS:          0  dACCESS:          0  dHIT:          0  dMISS:          0  itACCESS:          0  itHIT:          0  itMISS:          0  dtACCESS:          0  dtHIT:          0  dtMISS:          0
cpu0_ITLB WRITE        ACCESS:          0  HIT:          0  MISS:          0  iACCESS:          0  iHIT:          0  iMISS:          0  dACCESS:          0  dHIT:          0  dMISS:          0  itACCESS:          0  itHIT:          0  itMISS:          0  dtACCESS:          0  dtHIT:          0  dtMISS:          0
cpu0_ITLB TRANSLATION  ACCESS:          0  HIT:          0  MISS:          0  iACCESS:          0  iHIT:          0  iMISS:          0  dACCESS:          0  dHIT:          0  dMISS:          0  itACCESS:          0  itHIT:          0  itMISS:          0  dtACCESS:          0  dtHIT:          0  dtMISS:          0
cpu0_ITLB PREFETCH  REQUESTED:          0  ISSUED:          0  CROSSED:          0  USEFUL:     333250  USELESS:      67185
cpu0_ITLB AVERAGE iMISS LATENCY: 4.37279 cycles
cpu0_ITLB AVERAGE dMISS LATENCY: 0 cycles
cpu0_ITLB AVERAGE itMISS LATENCY: 0 cycles
cpu0_ITLB AVERAGE dtMISS LATENCY: 0 cycles
cpu0_ITLB PAGE CROSSINGS (TLB HIT):         0 
cpu0_ITLB PAGE CROSSINGS (TLB MISS):         0 
cpu0_ITLB AVERAGE MISS LATENCY: 4.37279 cycles
cpu0_DTLB TOTAL       ACCESS:   28154882  HIT:   26131497  MISS:    2023385  iACCESS:          0  iHIT:          0  iMISS:          0  dACCESS:   28154882  dHIT:   26131497  dMISS:    2023385  itACCESS:          0  itHIT:          0  itMISS:          0  dtACCESS:          0  dtHIT:          0  dtMISS:          0
cpu0_DTLB LOAD         ACCESS:   28154882  HIT:   26131497  MISS:    2023385  iACCESS:          0  iHIT:          0  iMISS:          0  dACCESS:   28154882  dHIT:   26131497  dMISS:    2023385  itACCESS:          0  itHIT:          0  itMISS:          0  dtACCESS:          0  dtHIT:          0  dtMISS:          0
cpu0_DTLB RFO          ACCESS:          0  HIT:          0  MISS:          0  iACCESS:          0  iHIT:          0  iMISS:          0  dACCESS:          0  dHIT:          0  dMISS:          0  itACCESS:          0  itHIT:          0  itMISS:          0  dtACCESS:          0  dtHIT:          0  dtMISS:          0
cpu0_DTLB PREFETCH     ACCESS:          0  HIT:          0  MISS:          0  iACCESS:          0  iHIT:          0  iMISS:          0  dACCESS:          0  dHIT:          0  dMISS:          0  itACCESS:          0  itHIT:          0  itMISS:          0  dtACCESS:          0  dtHIT:          0  dtMISS:          0
cpu0_DTLB WRITE        ACCESS:          0  HIT:          0  MISS:          0  iACCESS:          0  iHIT:          0  iMISS:          0  dACCESS:          0  dHIT:          0  dMISS:          0  itACCESS:          0  itHIT:          0  itMISS:          0  dtACCESS:          0  dtHIT:          0  dtMISS:          0
cpu0_DTLB TRANSLATION  ACCESS:          0  HIT:          0  MISS:          0  iACCESS:          0  iHIT:          0  iMISS:          0  dACCESS:          0  dHIT:          0  dMISS:          0  itACCESS:          0  itHIT:          0  itMISS:          0  dtACCESS:          0  dtHIT:          0  dtMISS:          0
cpu0_DTLB PREFETCH  REQUESTED:          0  ISSUED:          0  CROSSED:          0  USEFUL:          0  USELESS:          0
cpu0_DTLB AVERAGE iMISS LATENCY: 0 cycles
cpu0_DTLB AVERAGE dMISS LATENCY: 12.0292 cycles
cpu0_DTLB AVERAGE itMISS LATENCY: 0 cycles
cpu0_DTLB AVERAGE dtMISS LATENCY: 0 cycles
cpu0_DTLB PAGE CROSSINGS (TLB HIT):         0 
cpu0_DTLB PAGE CROSSINGS (TLB MISS):         0 
cpu0_DTLB AVERAGE MISS LATENCY: 12.0292 cycles
cpu0_STLB TOTAL       ACCESS:    1640505  HIT:    1389510  MISS:     250995  iACCESS:     400439  iHIT:     309815  iMISS:      90624  dACCESS:    1240066  dHIT:    1079695  dMISS:     160371  itACCESS:          0  itHIT:          0  itMISS:          0  dtACCESS:          0  dtHIT:          0  dtMISS:          0
cpu0_STLB LOAD         ACCESS:    1640505  HIT:    1389510  MISS:     250995  iACCESS:     400439  iHIT:     309815  iMISS:      90624  dACCESS:    1240066  dHIT:    1079695  dMISS:     160371  itACCESS:          0  itHIT:          0  itMISS:          0  dtACCESS:          0  dtHIT:          0  dtMISS:          0
cpu0_STLB RFO          ACCESS:          0  HIT:          0  MISS:          0  iACCESS:          0  iHIT:          0  iMISS:          0  dACCESS:          0  dHIT:          0  dMISS:          0  itACCESS:          0  itHIT:          0  itMISS:          0  dtACCESS:          0  dtHIT:          0  dtMISS:          0
cpu0_STLB PREFETCH     ACCESS:          0  HIT:          0  MISS:          0  iACCESS:          0  iHIT:          0  iMISS:          0  dACCESS:          0  dHIT:          0  dMISS:          0  itACCESS:          0  itHIT:          0  itMISS:          0  dtACCESS:          0  dtHIT:          0  dtMISS:          0
cpu0_STLB WRITE        ACCESS:          0  HIT:          0  MISS:          0  iACCESS:          0  iHIT:          0  iMISS:          0  dACCESS:          0  dHIT:          0  dMISS:          0  itACCESS:          0  itHIT:          0  itMISS:          0  dtACCESS:          0  dtHIT:          0  dtMISS:          0
cpu0_STLB TRANSLATION  ACCESS:          0  HIT:          0  MISS:          0  iACCESS:          0  iHIT:          0  iMISS:          0  dACCESS:          0  dHIT:          0  dMISS:          0  itACCESS:          0  itHIT:          0  itMISS:          0  dtACCESS:          0  dtHIT:          0  dtMISS:          0
cpu0_STLB PREFETCH  REQUESTED:          0  ISSUED:          0  CROSSED:          0  USEFUL:          0  USELESS:          0
cpu0_STLB AVERAGE iMISS LATENCY: 21.4257 cycles
cpu0_STLB AVERAGE dMISS LATENCY: 57.4629 cycles
cpu0_STLB AVERAGE itMISS LATENCY: 0 cycles
cpu0_STLB AVERAGE dtMISS LATENCY: 0 cycles
cpu0_STLB PAGE CROSSINGS (TLB HIT):         0 
cpu0_STLB PAGE CROSSINGS (TLB MISS):         0 
cpu0_STLB AVERAGE MISS LATENCY: 78.8886 cycles
cpu0_L1D TOTAL       ACCESS:   43227173  HIT:   38781907  MISS:    4445266  iACCESS:          0  iHIT:          0  iMISS:          0  dACCESS:   42912684  dHIT:   38756479  dMISS:    4156205  itACCESS:      97075  itHIT:      12798  itMISS:      84277  dtACCESS:     217414  dtHIT:      12630  dtMISS:     204784
cpu0_L1D LOAD         ACCESS:   19690875  HIT:   17762472  MISS:    1928403  iACCESS:          0  iHIT:          0  iMISS:          0  dACCESS:   19690875  dHIT:   17762472  dMISS:    1928403  itACCESS:          0  itHIT:          0  itMISS:          0  dtACCESS:          0  dtHIT:          0  dtMISS:          0
cpu0_L1D RFO          ACCESS:          0  HIT:          0  MISS:          0  iACCESS:          0  iHIT:          0  iMISS:          0  dACCESS:          0  dHIT:          0  dMISS:          0  itACCESS:          0  itHIT:          0  itMISS:          0  dtACCESS:          0  dtHIT:          0  dtMISS:          0
cpu0_L1D PREFETCH     ACCESS:   13130166  HIT:   11349194  MISS:    1780972  iACCESS:          0  iHIT:          0  iMISS:          0  dACCESS:   13130166  dHIT:   11349194  dMISS:    1780972  itACCESS:          0  itHIT:          0  itMISS:          0  dtACCESS:          0  dtHIT:          0  dtMISS:          0
cpu0_L1D WRITE        ACCESS:   10091643  HIT:    9644813  MISS:     446830  iACCESS:          0  iHIT:          0  iMISS:          0  dACCESS:   10091643  dHIT:    9644813  dMISS:     446830  itACCESS:          0  itHIT:          0  itMISS:          0  dtACCESS:          0  dtHIT:          0  dtMISS:          0
cpu0_L1D TRANSLATION  ACCESS:     314489  HIT:      25428  MISS:     289061  iACCESS:          0  iHIT:          0  iMISS:          0  dACCESS:          0  dHIT:          0  dMISS:          0  itACCESS:      97075  itHIT:      12798  itMISS:      84277  dtACCESS:     217414  dtHIT:      12630  dtMISS:     204784
cpu0_L1D PREFETCH  REQUESTED:   19690875  ISSUED:   17604595  CROSSED:          0  USEFUL:     325029  USELESS:     748733
cpu0_L1D AVERAGE iMISS LATENCY: 0 cycles
cpu0_L1D AVERAGE dMISS LATENCY: 39.5317 cycles
cpu0_L1D AVERAGE itMISS LATENCY: 1.03335 cycles
cpu0_L1D AVERAGE dtMISS LATENCY: 2.77046 cycles
cpu0_L1D PAGE CROSSINGS (TLB HIT):         0 
cpu0_L1D PAGE CROSSINGS (TLB MISS):         0 
cpu0_L1D AVERAGE MISS LATENCY: 43.3355 cycles
cpu0_L2C TOTAL       ACCESS:    7536279  HIT:    1628089  MISS:    5908190  iACCESS:    3440050  iHIT:     822066  iMISS:    2617984  dACCESS:    3811082  dHIT:     634880  dMISS:    3176202  itACCESS:      84277  itHIT:      56313  itMISS:      27964  dtACCESS:     200870  dtHIT:     114830  dtMISS:      86040
cpu0_L2C LOAD         ACCESS:    1799454  HIT:     251457  MISS:    1547997  iACCESS:     779880  iHIT:     126008  iMISS:     653872  dACCESS:    1019574  dHIT:     125449  dMISS:     894125  itACCESS:          0  itHIT:          0  itMISS:          0  dtACCESS:          0  dtHIT:          0  dtMISS:          0
cpu0_L2C RFO          ACCESS:     162243  HIT:      38773  MISS:     123470  iACCESS:          0  iHIT:          0  iMISS:          0  dACCESS:     162243  dHIT:      38773  dMISS:     123470  itACCESS:          0  itHIT:          0  itMISS:          0  dtACCESS:          0  dtHIT:          0  dtMISS:          0
cpu0_L2C PREFETCH     ACCESS:    4998054  HIT:    1042442  MISS:    3955612  iACCESS:    2660170  iHIT:     696058  iMISS:    1964112  dACCESS:    2337884  dHIT:     346384  dMISS:    1991500  itACCESS:          0  itHIT:          0  itMISS:          0  dtACCESS:          0  dtHIT:          0  dtMISS:          0
cpu0_L2C WRITE        ACCESS:     291381  HIT:     124274  MISS:     167107  iACCESS:          0  iHIT:          0  iMISS:          0  dACCESS:     291381  dHIT:     124274  dMISS:     167107  itACCESS:          0  itHIT:          0  itMISS:          0  dtACCESS:          0  dtHIT:          0  dtMISS:          0
cpu0_L2C TRANSLATION  ACCESS:     285147  HIT:     171143  MISS:     114004  iACCESS:          0  iHIT:          0  iMISS:          0  dACCESS:          0  dHIT:          0  dMISS:          0  itACCESS:      84277  itHIT:      56313  itMISS:      27964  dtACCESS:     200870  dtHIT:     114830  dtMISS:      86040
cpu0_L2C PREFETCH  REQUESTED:    1534568  ISSUED:    1534564  CROSSED:          0  USEFUL:     424695  USELESS:     447120
cpu0_L2C AVERAGE iMISS LATENCY: 21.9938 cycles
cpu0_L2C AVERAGE dMISS LATENCY: 37.2366 cycles
cpu0_L2C AVERAGE itMISS LATENCY: 0.644039 cycles
cpu0_L2C AVERAGE dtMISS LATENCY: 1.76271 cycles
cpu0_L2C PAGE CROSSINGS (TLB HIT):         0 
cpu0_L2C PAGE CROSSINGS (TLB MISS):         0 
cpu0_L2C AVERAGE MISS LATENCY: 61.6372 cycles
LLC TOTAL       ACCESS:    5723544  HIT:    4076765  MISS:    1646779  iACCESS:    2538375  iHIT:    1984995  iMISS:     553380  dACCESS:    3071165  dHIT:    2044203  dMISS:    1026962  itACCESS:      27964  itHIT:       9176  itMISS:      18788  dtACCESS:      86040  dtHIT:      38391  dtMISS:      47649
LLC LOAD         ACCESS:    1541564  HIT:    1164882  MISS:     376682  iACCESS:     652449  iHIT:     537658  iMISS:     114791  dACCESS:     889115  dHIT:     627224  dMISS:     261891  itACCESS:          0  itHIT:          0  itMISS:          0  dtACCESS:          0  dtHIT:          0  dtMISS:          0
LLC RFO          ACCESS:     123468  HIT:      66815  MISS:      56653  iACCESS:          0  iHIT:          0  iMISS:          0  dACCESS:     123468  dHIT:      66815  dMISS:      56653  itACCESS:          0  itHIT:          0  itMISS:          0  dtACCESS:          0  dtHIT:          0  dtMISS:          0
LLC PREFETCH     ACCESS:    3774632  HIT:    2637774  MISS:    1136858  iACCESS:    1885926  iHIT:    1447337  iMISS:     438589  dACCESS:    1888706  dHIT:    1190437  dMISS:     698269  itACCESS:          0  itHIT:          0  itMISS:          0  dtACCESS:          0  dtHIT:          0  dtMISS:          0
LLC WRITE        ACCESS:     169876  HIT:     159727  MISS:      10149  iACCESS:          0  iHIT:          0  iMISS:          0  dACCESS:     169876  dHIT:     159727  dMISS:      10149  itACCESS:          0  itHIT:          0  itMISS:          0  dtACCESS:          0  dtHIT:          0  dtMISS:          0
LLC TRANSLATION  ACCESS:     114004  HIT:      47567  MISS:      66437  iACCESS:          0  iHIT:          0  iMISS:          0  dACCESS:          0  dHIT:          0  dMISS:          0  itACCESS:      27964  itHIT:       9176  itMISS:      18788  dtACCESS:      86040  dtHIT:      38391  dtMISS:      47649
LLC PREFETCH  REQUESTED:          0  ISSUED:          0  CROSSED:          0  USEFUL:          0  USELESS:          0
LLC AVERAGE iMISS LATENCY: 49.0659 cycles
LLC AVERAGE dMISS LATENCY: 100.529 cycles
LLC AVERAGE itMISS LATENCY: 1.97726 cycles
LLC AVERAGE dtMISS LATENCY: 5.3042 cycles
LLC PAGE CROSSINGS (TLB HIT):         0 
LLC PAGE CROSSINGS (TLB MISS):         0 
LLC AVERAGE MISS LATENCY: 156.877 cycles

PageTableWalker TOTAL       ACCESS:     128435  
PageTableWalker AVERAGE LATENCY: 4.26964 cycles
PageTableWalker TOTAL LATENCY: 548370 cycles

DRAM Statistics
Channel 0
 RQ ROW_BUFFER_HIT:     484882
  ROW_BUFFER_MISS:    1133013
 AVG DBUS CONGESTED CYCLE:     3.6344
 WQ ROW_BUFFER_HIT:      35168
  ROW_BUFFER_MISS:      27843  FULL:          0

